LTspice 24.1.10 for Windows
Start Time: Sun Sep 21 12:13:44 2025

                       ^^^^^^^
