Circuit: * U:\Year4\Design_of_Digital_Devices\Block_Diagram - Copy\Diagram.asc

WARNING: Node X2:N004 is floating.

WARNING: Less than two connections to node X3:VCC.  This node is used by Q:X3:1.
Early termination of direct N-R iteration.
Direct Newton iteration failed to find .op point.  (Use ".option noopiter" to skip.)
Starting Gmin stepping
Gmin = 10
vernier = 0.5
vernier = 0.25
vernier = 0.125
Gmin = 5.5165
vernier = 0.0625
vernier = 0.03125
vernier = 0.015625
vernier = 0.0078125
Gmin = 5.49501
vernier = 0.00390625
vernier = 0.00195313
vernier = 0.000976563
vernier = 0.000488281
Gmin = 5.50104
Gmin = 0
Gmin stepping succeeded in finding the operating point.

Ignoring empty pin current: Ix(u1:1)
Ignoring empty pin current: Ix(u1:2)
Ignoring empty pin current: Ix(u1:3)
Ignoring empty pin current: Ix(u1:4)
Ignoring empty pin current: Ix(u1:5)
Ignoring empty pin current: Ix(u2:1)
Ignoring empty pin current: Ix(u2:2)
Ignoring empty pin current: Ix(u2:3)
Ignoring empty pin current: Ix(u2:4)
Ignoring empty pin current: Ix(u2:5)
Ignoring empty pin current: Ix(u3:1)
Ignoring empty pin current: Ix(u3:2)
Ignoring empty pin current: Ix(u3:3)
Ignoring empty pin current: Ix(u3:4)
Ignoring empty pin current: Ix(u3:5)
Ignoring empty pin current: Ix(x3:vin+12)
Ignoring empty pin current: Ix(x3:vin-12)
Ignoring empty pin current: Ix(u1:1)
Ignoring empty pin current: Ix(u1:2)
Ignoring empty pin current: Ix(u1:3)
Ignoring empty pin current: Ix(u1:4)
Ignoring empty pin current: Ix(u1:5)
Ignoring empty pin current: Ix(u2:1)
Ignoring empty pin current: Ix(u2:2)
Ignoring empty pin current: Ix(u2:3)
Ignoring empty pin current: Ix(u2:4)
Ignoring empty pin current: Ix(u2:5)
Ignoring empty pin current: Ix(u3:1)
Ignoring empty pin current: Ix(u3:2)
Ignoring empty pin current: Ix(u3:3)
Ignoring empty pin current: Ix(u3:4)
Ignoring empty pin current: Ix(u3:5)
Ignoring empty pin current: Ix(x3:vin+12)
Ignoring empty pin current: Ix(x3:vin-12)
.step x=-0.3
Heightened Def Con from 0.0011479 ++++++++++++++++++++to 0.0011479
Heightened Def Con from 0.0011479 +++++++++++++++++++to 0.0011479
Heightened Def Con from 0.0011479 +++++++++++++++++++++to 0.00114791
Heightened Def Con from 0.00114791 +++++++++++++++++++++to 0.00114791
Heightened Def Con from 0.00114791 ++++++++++++++++++to 0.00114791
Heightened Def Con from 0.00114791 ++++++++++++++++++++to 0.00114792
Heightened Def Con from 0.00114792 ++++++++++++++++++++to 0.00114792
Heightened Def Con from 0.00114792 ++++++++++++++++++++++to 0.00114793
Heightened Def Con from 0.00114793 ++++++++++++++++++++++to 0.00114793
Heightened Def Con from 0.00114793 +++++++++++++++++++to 0.00114794
Heightened Def Con from 0.00114794 ++++++++++++++++++++++to 0.00114794
Heightened Def Con from 0.00114794 +++++++++++++++++++++to 0.00114794
Heightened Def Con from 0.00114794 ++++++++++++++++to 0.00114795
Heightened Def Con from 0.00114795 +++++++++++++++++to 0.00114795
Heightened Def Con from 0.00114795 ++++++++++++++++++++to 0.00114795
Heightened Def Con from 0.00114795 ++++++++++++++++++++to 0.00114796
Heightened Def Con from 0.00114796 ++++++++++++++++++++to 0.00114796
Heightened Def Con from 0.00114796 ++++++++++++++++++++to 0.00114797
Heightened Def Con from 0.00114797 ++++++++++++++++++++to 0.00114797
Heightened Def Con from 0.00114797 +++++++++++++++++++++to 0.00114797
Heightened Def Con from 0.00114797 ++++++++++++++++++++to 0.00114798
Heightened Def Con from 0.00114798 ++++++++++++++++++++to 0.00114799
Heightened Def Con from 0.00114799 ++++++++++++++++++++to 0.00114799
Heightened Def Con from 0.00114799 ++++++++++++++++++++to 0.00114799
Heightened Def Con from 0.00114799 +++++++++++++++++++to 0.001148
Heightened Def Con from 0.001148 +++++++++++++++++++to 0.001148
Heightened Def Con from 0.001148 +++++++++++++++++++to 0.00114801
Heightened Def Con from 0.00114801 +++++++++++++++++to 0.00114801
Heightened Def Con from 0.00114801 ++++++++++++++++++++++to 0.00114801
Heightened Def Con from 0.00114801 +++++++++++++++++++++to 0.00114801
Heightened Def Con from 0.00114801 ++++++++++++++++++++to 0.00114802
Heightened Def Con from 0.00114802 ++++++++++++++++++++to 0.00114803
Heightened Def Con from 0.00114803 +++++++++++++++++++++to 0.00114803
Heightened Def Con from 0.00114803 ++++++++++++++++++++to 0.00114804
Heightened Def Con from 0.00114804 ++++++++++++++++++++to 0.00114804
Heightened Def Con from 0.00114804 ++++++++++++++++++++to 0.00114804
Heightened Def Con from 0.00114804 ++++++++++++++++++++to 0.00114804
Heightened Def Con from 0.00114804 ++++++++++++++++++++to 0.00114804
Heightened Def Con from 0.00114804 ++++++++++++++++++++to 0.00114804
Heightened Def Con from 0.00114804 ++++++++++++++++++++to 0.00114805
Heightened Def Con from 0.00114805 ++++++++++++++++++++to 0.00114805
Heightened Def Con from 0.00114805 ++++++++++++++++++++to 0.00114805
Heightened Def Con from 0.00114805 +++++++++++++++++++++to 0.00114805
Heightened Def Con from 0.00114805 ++++++++++++++++++++to 0.00114806
Heightened Def Con from 0.00114806 ++++++++++++++++++++to 0.00114806
Heightened Def Con from 0.00114806 ++++++++++++++++++++++++++to 0.00114807
Heightened Def Con from 0.00114807 ++++++++++++++++++++++to 0.00114807
Heightened Def Con from 0.00114807 +++++++++++++++++++++to 0.00114807
Heightened Def Con from 0.00114807 ++++++++++++++++++++to 0.00114808
Heightened Def Con from 0.00114808 ++++++++++++++++++++to 0.00114808
Heightened Def Con from 0.00114808 +++++++++++++++++++to 0.00114809
Heightened Def Con from 0.00114809 ++++++++++++++++++to 0.00114809
Heightened Def Con from 0.00114809 ++++++++++++++++++++to 0.00114809
Heightened Def Con from 0.00114809 +++++++++++++++++++++to 0.0011481
Heightened Def Con from 0.0011481 +++++++++++++++++++++to 0.0011481
Heightened Def Con from 0.0011481 ++++++++++++++++++++to 0.00114811
Heightened Def Con from 0.00114811 ++++++++++++++++++++to 0.00114811
Heightened Def Con from 0.00114811 ++++++++++++++++++++to 0.00114811
Heightened Def Con from 0.00114811 ++++++++++++++++++++to 0.00114812
Heightened Def Con from 0.00114812 ++++++++++++++++++++to 0.00114812
Heightened Def Con from 0.00114812 ++++++++++++++++++++to 0.00114812
Heightened Def Con from 0.00114812 ++++++++++++++++++++to 0.00114813
Heightened Def Con from 0.00114813 ++++++++++++++++++++to 0.00114813
Heightened Def Con from 0.00114813 ++++++++++++++++++++++to 0.00114813
Heightened Def Con from 0.00114813 +++++++++++++++++++++to 0.00114814
Heightened Def Con from 0.00114814 ++++++++++++++++++++to 0.00114814
Heightened Def Con from 0.00114814 ++++++++++++++++++++to 0.00114815
Heightened Def Con from 0.00114815 +++++++++++++++++++to 0.00114815
Heightened Def Con from 0.00114815 ++++++++++++++++++to 0.00114815
Heightened Def Con from 0.00114815 ++++++++++++++++++to 0.00114816
Heightened Def Con from 0.00114816 +++++++++++++++++to 0.00114816
Heightened Def Con from 0.00114816 +++++++++++++++++to 0.00114816
Heightened Def Con from 0.00114816 +++++++++++++++++to 0.00114817
Heightened Def Con from 0.00114817 ++++++++++++++++++to 0.00114817
Heightened Def Con from 0.00114817 ++++++++++++++++++++to 0.00114817
Heightened Def Con from 0.00114817 +++++++++++++++++++++to 0.00114818
Heightened Def Con from 0.00114818 +++++++++++++++++++to 0.00114818
Heightened Def Con from 0.00114818 +++++++++++++++++++++to 0.00114819
Heightened Def Con from 0.00114819 ++++++++++++++++++++to 0.00114819
Heightened Def Con from 0.00114819 ++++++++++++++++++to 0.0011482
Heightened Def Con from 0.0011482 ++++++++++++++++++to 0.0011482
Heightened Def Con from 0.0011482 +++++++++++++++++++++to 0.00114821
Heightened Def Con from 0.00114821 ++++++++++++++++++++to 0.00114821
Heightened Def Con from 0.00114821 +++++++++++++++++++to 0.00114821
Heightened Def Con from 0.00114821 +++++++++++++++++++++to 0.00114822
Heightened Def Con from 0.00114822 +++++++++++++++++++to 0.00114822
Heightened Def Con from 0.00114822 ++++++++++++++++++++to 0.00114823
Heightened Def Con from 0.00114823 +++++++++++++++++++++to 0.00114823
Heightened Def Con from 0.00114823 +++++++++++++++++++++to 0.00114824
Heightened Def Con from 0.00114824 ++++++++++++++++++++to 0.00114824
Heightened Def Con from 0.00114824 +++++++++++++++++++++to 0.00114825
Heightened Def Con from 0.00114825 +++++++++++++++++++++to 0.00114825
Heightened Def Con from 0.00114825 +++++++++++++++++++++to 0.00114826
Heightened Def Con from 0.00114826 +++++++++++++++++++++to 0.00114826
Heightened Def Con from 0.00114826 +++++++++++++++++++++to 0.00114827
Heightened Def Con from 0.00114827 +++++++++++++++++++++to 0.00114827
Heightened Def Con from 0.00114827 ++++++++++++++++++++to 0.00114828
Heightened Def Con from 0.00114828 +++++++++++++++++++to 0.00114828
Heightened Def Con from 0.00114828 ++++++++++++++++++++to 0.00114828
Heightened Def Con from 0.00114828 +++++++++++++++++++to 0.00114829
Heightened Def Con from 0.00114829 ++++++++++++++++++++to 0.00114829
Heightened Def Con from 0.00114829 ++++++++++++++++++++to 0.0011483
Heightened Def Con from 0.0011483 ++++++++++++++++++++to 0.0011483
Heightened Def Con from 0.0011483 ++++++++++++++++++++to 0.00114831
Heightened Def Con from 0.00114831 ++++++++++++++++++++to 0.00114831
Heightened Def Con from 0.00114831 +++++++++++++++++++++to 0.00114832
Heightened Def Con from 0.00114832 +++++++++++++++++++++to 0.00114833
Heightened Def Con from 0.00114833 +++++++++++++++++++++to 0.00114833
Heightened Def Con from 0.00114833 +++++++++++++++++++++to 0.00114834
Heightened Def Con from 0.00114834 ++++++++++++++++++++to 0.00114834
Heightened Def Con from 0.00114834 ++++++++++++++++++++to 0.00114835
Heightened Def Con from 0.00114835 ++++++++++++++++++++to 0.00114835
Heightened Def Con from 0.00114835 ++++++++++++++++++++to 0.00114835
Heightened Def Con from 0.00114835 ++++++++++++++++++++to 0.00114835
Heightened Def Con from 0.00114835 +++++++++++++++++++++to 0.00114836
Heightened Def Con from 0.00114836 +++++++++++++++++++++to 0.00114836
Heightened Def Con from 0.00114836 ++++++++++++++++++++to 0.00114836
Heightened Def Con from 0.00114836 +++++++++++++++++++to 0.00114837
Heightened Def Con from 0.00114837 +++++++++++++++++++++to 0.00114837
Heightened Def Con from 0.00114837 +++++++++++++++++++++to 0.00114838
Heightened Def Con from 0.00114838 +++++++++++++++++++++to 0.00114838
Heightened Def Con from 0.00114838 +++++++++++++++++++to 0.00114838
Heightened Def Con from 0.00114838 ++++++++++++++++++to 0.00114839
Heightened Def Con from 0.00114839 ++++++++++++++++++++to 0.00114839
Heightened Def Con from 0.00114839 ++++++++++++++++++++to 0.0011484
Heightened Def Con from 0.0011484 +++++++++++++++++++++to 0.0011484
Heightened Def Con from 0.0011484 +++++++++++++++++++++to 0.00114841
Heightened Def Con from 0.00114841 ++++++++++++++++++++to 0.00114841
Heightened Def Con from 0.00114841 +++++++++++++++++++++to 0.00114841
Heightened Def Con from 0.00114841 ++++++++++++++++++to 0.00114842
Heightened Def Con from 0.00114842 +++++++++++++++++++to 0.00114842
Heightened Def Con from 0.00114842 ++++++++++++++++++++to 0.00114843
Heightened Def Con from 0.00114843 ++++++++++++++++++to 0.00114843
Heightened Def Con from 0.00114843 ++++++++++++++++++to 0.00114844
Heightened Def Con from 0.00114844 ++++++++++++++++++++to 0.00114844
Heightened Def Con from 0.00114844 +++++++++++++++++++++to 0.00114845
Heightened Def Con from 0.00114845 ++++++++++++++++++++to 0.00114845
Heightened Def Con from 0.00114845 +++++++++++++++++++++to 0.00114846
Heightened Def Con from 0.00114846 ++++++++++++++++++to 0.00114846
Heightened Def Con from 0.00114846 ++++++++++++++++++++++to 0.00114846
Heightened Def Con from 0.00114846 ++++++++++++++++++++to 0.00114847
Heightened Def Con from 0.00114847 ++++++++++++++++++++to 0.00114848
Heightened Def Con from 0.00114848 ++++++++++++++++++++to 0.00114848
Heightened Def Con from 0.00114848 ++++++++++++++++++++to 0.00114848
Heightened Def Con from 0.00114848 +++++++++++++++++++to 0.00114848
Heightened Def Con from 0.00114848 +++++++++++++++++++++to 0.00114849
Heightened Def Con from 0.00114849 ++++++++++++++++++++to 0.00114849
Heightened Def Con from 0.00114849 +++++++++++++++++++++to 0.0011485
Heightened Def Con from 0.0011485 ++++++++++++++++++++to 0.00114851
Heightened Def Con from 0.00114851 ++++++++++++++++++++to 0.00114851
Heightened Def Con from 0.00114851 +++++++++++++++++++++to 0.00114851
Heightened Def Con from 0.00114851 ++++++++++++++++++++to 0.00114852
Heightened Def Con from 0.00114852 ++++++++++++++++++++++++++to 0.00114852
Heightened Def Con from 0.00114852 +++++++++++++++++++++to 0.00114852
Heightened Def Con from 0.00114852 ++++++++++++++++++to 0.00114853
Heightened Def Con from 0.00114853 +++++++++++++++++++to 0.00114853
Heightened Def Con from 0.00114853 +++++++++++++++++++to 0.00114854
Heightened Def Con from 0.00114854 +++++++++++++++++to 0.00114854
Heightened Def Con from 0.00114854 +++++++++++++++++++to 0.00114855
Heightened Def Con from 0.00114855 +++++++++++++++++++to 0.00114855
Heightened Def Con from 0.00114855 ++++++++++++++++++++to 0.00114856
Heightened Def Con from 0.00114856 ++++++++++++++++++++to 0.00114856
Heightened Def Con from 0.00114856 +++++++++++++++++++++to 0.00114856
Heightened Def Con from 0.00114856 +++++++++++++++++++++to 0.00114857
Heightened Def Con from 0.00114857 ++++++++++++++++++++to 0.00114857
Heightened Def Con from 0.00114857 +++++++++++++++++++to 0.00114858
Heightened Def Con from 0.00114858 +++++++++++++++++to 0.00114858
Heightened Def Con from 0.00114858 +++++++++++++++++to 0.00114858
Heightened Def Con from 0.00114858 ++++++++++++++++to 0.00114859
Heightened Def Con from 0.00114859 ++++++++++++++++++++to 0.00114859
Heightened Def Con from 0.00114859 ++++++++++++++++++++to 0.0011486
Heightened Def Con from 0.0011486 ++++++++++++++++++++to 0.0011486
Heightened Def Con from 0.0011486 ++++++++++++++++++++to 0.0011486
Heightened Def Con from 0.0011486 +++++++++++++++++++++to 0.00114861
Heightened Def Con from 0.00114861 +++++++++++++++++++to 0.00114861
Heightened Def Con from 0.00114861 ++++++++++++++++++to 0.00114861
Heightened Def Con from 0.00114861 +++++++++++++++++++++to 0.00114862
Heightened Def Con from 0.00114862 ++++++++++++++++++++to 0.00114862
Heightened Def Con from 0.00114862 ++++++++++++++++++++to 0.00114862
Heightened Def Con from 0.00114862 ++++++++++++++++++++to 0.00114863
Heightened Def Con from 0.00114863 ++++++++++++++++++++to 0.00114863
Heightened Def Con from 0.00114863 ++++++++++++++++++++to 0.00114863
Heightened Def Con from 0.00114863 +++++++++++++++++++to 0.00114864
Heightened Def Con from 0.00114864 ++++++++++++++++++++to 0.00114864
Heightened Def Con from 0.00114864 ++++++++++++++++++++to 0.00114864
Heightened Def Con from 0.00114864 +++++++++++++++++++++to 0.00114865
Heightened Def Con from 0.00114865 +++++++++++++++++++++to 0.00114865
Heightened Def Con from 0.00114865 +++++++++++++++++++++to 0.00114865
Heightened Def Con from 0.00114865 +++++++++++++++++++to 0.00114866
Heightened Def Con from 0.00114866 +++++++++++++++++++++to 0.00114866
Heightened Def Con from 0.00114866 +++++++++++++++++++++to 0.00114867
Heightened Def Con from 0.00114867 +++++++++++++++++++to 0.00114867
Heightened Def Con from 0.00114867 ++++++++++++++++++to 0.00114868
Heightened Def Con from 0.00114868 ++++++++++++++++++to 0.00114868
Heightened Def Con from 0.00114868 ++++++++++++++++++++to 0.00114869
Heightened Def Con from 0.00114869 ++++++++++++++++++++to 0.00114869
Heightened Def Con from 0.00114869 ++++++++++++++++++++to 0.00114869
Heightened Def Con from 0.00114869 +++++++++++++++++++to 0.0011487
Heightened Def Con from 0.0011487 ++++++++++++++++++to 0.0011487
Heightened Def Con from 0.0011487 +++++++++++++++++to 0.0011487
Heightened Def Con from 0.0011487 +++++++++++++++++++to 0.00114871
Heightened Def Con from 0.00114871 ++++++++++++++++++to 0.00114871
Heightened Def Con from 0.00114871 ++++++++++++++++++++to 0.00114871
Heightened Def Con from 0.00114871 ++++++++++++++++++++to 0.00114872
Heightened Def Con from 0.00114872 ++++++++++++++++++++to 0.00114873
Heightened Def Con from 0.00114873 ++++++++++++++++++++to 0.00114873
Heightened Def Con from 0.00114873 +++++++++++++++++++++to 0.00114873
Heightened Def Con from 0.00114873 ++++++++++++++++++++to 0.00114874
Heightened Def Con from 0.00114874 +++++++++++++++++++to 0.00114874
Heightened Def Con from 0.00114874 ++++++++++++++++++to 0.00114874
Heightened Def Con from 0.00114874 ++++++++++++++++++++to 0.00114875
Heightened Def Con from 0.00114875 +++++++++++++++++++to 0.00114875
Heightened Def Con from 0.00114875 ++++++++++++++++++++to 0.00114876
Heightened Def Con from 0.00114876 ++++++++++++++++++++to 0.00114876
Heightened Def Con from 0.00114876 ++++++++++++++++++++to 0.00114876
Heightened Def Con from 0.00114876 +++++++++++++++++++to 0.00114877
Heightened Def Con from 0.00114877 ++++++++++++++++++++to 0.00114877
Heightened Def Con from 0.00114877 +++++++++++++++++++++to 0.00114878
Heightened Def Con from 0.00114878 +++++++++++++++++++++to 0.00114878
Heightened Def Con from 0.00114878 +++++++++++++++++++++to 0.00114879
Heightened Def Con from 0.00114879 +++++++++++++++++++to 0.00114879
Heightened Def Con from 0.00114879 +++++++++++++++++++to 0.0011488
Heightened Def Con from 0.0011488 ++++++++++++++++++to 0.0011488
Heightened Def Con from 0.0011488 ++++++++++++++++++to 0.0011488
Heightened Def Con from 0.0011488 +++++++++++++++++++to 0.00114881
Heightened Def Con from 0.00114881 ++++++++++++++++++to 0.00114881
Heightened Def Con from 0.00114881 ++++++++++++++++++to 0.00114882
Heightened Def Con from 0.00114882 +++++++++++++++++++++to 0.00114882
Heightened Def Con from 0.00114882 +++++++++++++++++++++to 0.00114882
Heightened Def Con from 0.00114882 +++++++++++++++++++++to 0.00114883
Heightened Def Con from 0.00114883 ++++++++++++++++++to 0.00114883
Heightened Def Con from 0.00114883 ++++++++++++++++to 0.00114883
Heightened Def Con from 0.00114883 ++++++++++++++++++++to 0.00114884
Heightened Def Con from 0.00114884 +++++++++++++++++++++to 0.00114885
Heightened Def Con from 0.00114885 +++++++++++++++++++++to 0.00114885
Heightened Def Con from 0.00114885 ++++++++++++++++++++to 0.00114886
Heightened Def Con from 0.00114886 +++++++++++++++++++to 0.00114886
Heightened Def Con from 0.00114886 ++++++++++++++++++to 0.00114886
Heightened Def Con from 0.00114886 ++++++++++++++++++++to 0.00114887
Heightened Def Con from 0.00114887 ++++++++++++++++++++to 0.00114887
Heightened Def Con from 0.00114887 ++++++++++++++++++++to 0.00114888
Heightened Def Con from 0.00114888 +++++++++++++++++++++to 0.00114888
Heightened Def Con from 0.00114888 ++++++++++++++++++++to 0.00114888
Heightened Def Con from 0.00114888 ++++++++++++++++++++to 0.00114889
Heightened Def Con from 0.00114889 ++++++++++++++++++++to 0.00114889
Heightened Def Con from 0.00114889 ++++++++++++++++++++to 0.00114889
Heightened Def Con from 0.00114889 ++++++++++++++++++++to 0.0011489
Heightened Def Con from 0.0011489 ++++++++++++++++++++to 0.0011489
Heightened Def Con from 0.0011489 ++++++++++++++++++++to 0.0011489
Heightened Def Con from 0.0011489 ++++++++++++++++++++to 0.0011489
Heightened Def Con from 0.0011489 ++++++++++++++++++++to 0.0011489
Heightened Def Con from 0.0011489 ++++++++++++++++++++to 0.0011489
Heightened Def Con from 0.0011489 ++++++++++++++++++++to 0.0011489
Heightened Def Con from 0.0011489 ++++++++++++++++++++to 0.0011489
Heightened Def Con from 0.0011489 +++++++++++++++++++to 0.00114891
Heightened Def Con from 0.00114891 ++++++++++++++++++++to 0.00114891
Heightened Def Con from 0.00114891 +++++++++++++++++++to 0.00114891
Heightened Def Con from 0.00114891 ++++++++++++++++++++to 0.00114892
Heightened Def Con from 0.00114892 ++++++++++++++++++to 0.00114892
Heightened Def Con from 0.00114892 ++++++++++++++++++++to 0.00114892
Heightened Def Con from 0.00114892 +++++++++++++++++++++to 0.00114893
Heightened Def Con from 0.00114893 +++++++++++++++++++++to 0.00114893
Heightened Def Con from 0.00114893 ++++++++++++++++++++to 0.00114894
Heightened Def Con from 0.00114894 +++++++++++++++++++++to 0.00114894
Heightened Def Con from 0.00114894 +++++++++++++++++++++to 0.00114895
Heightened Def Con from 0.00114895 ++++++++++++++++++++to 0.00114895
Heightened Def Con from 0.00114895 +++++++++++++++++++to 0.00114895
Heightened Def Con from 0.00114895 ++++++++++++++++++to 0.00114896
Heightened Def Con from 0.00114896 +++++++++++++++++++++to 0.00114896
Heightened Def Con from 0.00114896 ++++++++++++++++++++to 0.00114897
Heightened Def Con from 0.00114897 ++++++++++++++++++++to 0.00114897
Heightened Def Con from 0.00114897 ++++++++++++++++++++to 0.00114897
Heightened Def Con from 0.00114897 +++++++++++++++++++to 0.00114897
Heightened Def Con from 0.00114897 +++++++++++++++++++++to 0.00114898
Heightened Def Con from 0.00114898 +++++++++++++++++++to 0.00114898
Heightened Def Con from 0.00114898 +++++++++++++++++++++to 0.00114898
Heightened Def Con from 0.00114898 ++++++++++++++++++++to 0.00114899
Heightened Def Con from 0.00114899 +++++++++++++++++++to 0.00114899
Heightened Def Con from 0.00114899 ++++++++++++++++++++++to 0.001149
Heightened Def Con from 0.001149 +++++++++++++++++++++to 0.001149
Heightened Def Con from 0.001149 +++++++++++++++++++++to 0.001149
Heightened Def Con from 0.001149 +++++++++++++++++++++to 0.001149
Heightened Def Con from 0.001149 +++++++++++++++++++++to 0.00114901
Heightened Def Con from 0.00114901 +++++++++++++++++++++to 0.00114901
Heightened Def Con from 0.00114901 ++++++++++++++++++++to 0.00114901
Heightened Def Con from 0.00114901 +++++++++++++++++++to 0.00114902
Heightened Def Con from 0.00114902 ++++++++++++++++++++to 0.00114902
Heightened Def Con from 0.00114902 ++++++++++++++++++++to 0.00114903
Heightened Def Con from 0.00114903 ++++++++++++++++++++to 0.00114903
Heightened Def Con from 0.00114903 ++++++++++++++++++++to 0.00114903
Heightened Def Con from 0.00114903 +++++++++++++++++++to 0.00114903
Heightened Def Con from 0.00114903 +++++++++++++++++++++to 0.00114904
Heightened Def Con from 0.00114904 ++++++++++++++++++++to 0.00114904
Heightened Def Con from 0.00114904 ++++++++++++++++++++to 0.00114905
Heightened Def Con from 0.00114905 ++++++++++++++++++++to 0.00114905
Heightened Def Con from 0.00114905 ++++++++++++++++++++to 0.00114906
Heightened Def Con from 0.00114906 ++++++++++++++++++++to 0.00114906
Heightened Def Con from 0.00114906 ++++++++++++++++++++to 0.00114906
Heightened Def Con from 0.00114906 ++++++++++++++++++++to 0.00114906
Heightened Def Con from 0.00114906 ++++++++++++++++++++to 0.00114906
Heightened Def Con from 0.00114906 ++++++++++++++++++++to 0.00114906
Heightened Def Con from 0.00114906 ++++++++++++++++++++to 0.00114906
Heightened Def Con from 0.00114906 ++++++++++++++++++++to 0.00114907
Heightened Def Con from 0.00114907 ++++++++++++++++++++to 0.00114907
Heightened Def Con from 0.00114907 ++++++++++++++++++++to 0.00114907
Heightened Def Con from 0.00114907 ++++++++++++++++++++to 0.00114907
Heightened Def Con from 0.00114907 ++++++++++++++++++++to 0.00114907
Heightened Def Con from 0.00114907 ++++++++++++++++++++to 0.00114908
Heightened Def Con from 0.00114908 ++++++++++++++++++++to 0.00114908
Heightened Def Con from 0.00114908 ++++++++++++++++++++to 0.00114908
Heightened Def Con from 0.00114908 +++++++++++++++++++++to 0.00114908
Heightened Def Con from 0.00114908 +++++++++++++++++++++to 0.00114909
Heightened Def Con from 0.00114909 +++++++++++++++++++++to 0.00114909
Heightened Def Con from 0.00114909 +++++++++++++++++++++to 0.0011491
Heightened Def Con from 0.0011491 +++++++++++++++++++++to 0.0011491
Heightened Def Con from 0.0011491 +++++++++++++++++++to 0.00114911
Heightened Def Con from 0.00114911 ++++++++++++++++++++++to 0.00114911
Heightened Def Con from 0.00114911 +++++++++++++++++++++to 0.00114911
Heightened Def Con from 0.00114911 ++++++++++++++++++++to 0.00114911
Heightened Def Con from 0.00114911 +++++++++++++++++++to 0.00114912
Heightened Def Con from 0.00114912 +++++++++++++++++++++to 0.00114912
Heightened Def Con from 0.00114912 +++++++++++++++++++++to 0.00114912
Heightened Def Con from 0.00114912 ++++++++++++++++++++to 0.00114913
Heightened Def Con from 0.00114913 ++++++++++++++++++++to 0.00114913
Heightened Def Con from 0.00114913 ++++++++++++++++++++to 0.00114913
Heightened Def Con from 0.00114913 ++++++++++++++++++++to 0.00114914
Heightened Def Con from 0.00114914 ++++++++++++++++++++to 0.00114914
Heightened Def Con from 0.00114914 +++++++++++++++++++++to 0.00114915
Heightened Def Con from 0.00114915 ++++++++++++++++++++to 0.00114915
Heightened Def Con from 0.00114915 ++++++++++++++++++to 0.00114915
Heightened Def Con from 0.00114915 +++++++++++++++++++to 0.00114916
Heightened Def Con from 0.00114916 ++++++++++++++++++++to 0.00114916
Heightened Def Con from 0.00114916 ++++++++++++++++++++to 0.00114917
Heightened Def Con from 0.00114917 ++++++++++++++++++++to 0.00114917
Heightened Def Con from 0.00114917 ++++++++++++++++++++to 0.00114917
Heightened Def Con from 0.00114917 +++++++++++++++++++to 0.00114917
Heightened Def Con from 0.00114917 ++++++++++++++++++++to 0.00114918
Heightened Def Con from 0.00114918 ++++++++++++++++++++to 0.00114918
Heightened Def Con from 0.00114918 +++++++++++++++++++++to 0.00114919
Heightened Def Con from 0.00114919 ++++++++++++++++++++to 0.00114919
Heightened Def Con from 0.00114919 +++++++++++++++++++to 0.0011492
Heightened Def Con from 0.0011492 ++++++++++++++++++++to 0.00114921
Heightened Def Con from 0.00114921 ++++++++++++++++++++to 0.00114921
Heightened Def Con from 0.00114921 +++++++++++++++++++to 0.00114921
Heightened Def Con from 0.00114921 ++++++++++++++++++++to 0.00114922
Heightened Def Con from 0.00114922 +++++++++++++++++++++to 0.00114922
Heightened Def Con from 0.00114922 +++++++++++++++++++to 0.00114922
Heightened Def Con from 0.00114922 ++++++++++++++++++++++to 0.00114923
Heightened Def Con from 0.00114923 ++++++++++++++++++++++to 0.00114923
Heightened Def Con from 0.00114923 +++++++++++++++++++++to 0.00114924
Heightened Def Con from 0.00114924 +++++++++++++++++++++to 0.00114924
Heightened Def Con from 0.00114924 ++++++++++++++++++++to 0.00114924
Heightened Def Con from 0.00114924 ++++++++++++++++++++to 0.00114925
Heightened Def Con from 0.00114925 +++++++++++++++++++to 0.00114925
Heightened Def Con from 0.00114925 ++++++++++++++++++to 0.00114925
Heightened Def Con from 0.00114925 ++++++++++++++++to 0.00114926
Heightened Def Con from 0.00114926 ++++++++++++++++++++to 0.00114926
Heightened Def Con from 0.00114926 ++++++++++++++++++++to 0.00114927
Heightened Def Con from 0.00114927 ++++++++++++++++++++to 0.00114927
Heightened Def Con from 0.00114927 ++++++++++++++++++++to 0.00114927
Heightened Def Con from 0.00114927 +++++++++++++++++++++to 0.00114928
Heightened Def Con from 0.00114928 +++++++++++++++++++++to 0.00114928
Heightened Def Con from 0.00114928 ++++++++++++++++++++to 0.00114929
Heightened Def Con from 0.00114929 ++++++++++++++++++++to 0.00114929
Heightened Def Con from 0.00114929 +++++++++++++++++++to 0.00114929
Heightened Def Con from 0.00114929 ++++++++++++++++++to 0.0011493
Heightened Def Con from 0.0011493 +++++++++++++++++++to 0.0011493
Heightened Def Con from 0.0011493 +++++++++++++++++++++to 0.00114931
Heightened Def Con from 0.00114931 +++++++++++++++++++++to 0.00114931
Heightened Def Con from 0.00114931 ++++++++++++++++++++to 0.00114932
Heightened Def Con from 0.00114932 ++++++++++++++++++++to 0.00114932
Heightened Def Con from 0.00114932 ++++++++++++++++++++to 0.00114932
Heightened Def Con from 0.00114932 ++++++++++++++++++++to 0.00114932
Heightened Def Con from 0.00114932 +++++++++++++++++++++to 0.00114933
Heightened Def Con from 0.00114933 +++++++++++++++++++++to 0.00114933
Heightened Def Con from 0.00114933 ++++++++++++++++++++to 0.00114933
Heightened Def Con from 0.00114933 +++++++++++++++++++++to 0.00114934
Heightened Def Con from 0.00114934 ++++++++++++++++++++to 0.00114934
Heightened Def Con from 0.00114934 +++++++++++++++++++to 0.00114934
Heightened Def Con from 0.00114934 +++++++++++++++++++++to 0.00114935
Heightened Def Con from 0.00114935 +++++++++++++++++++++to 0.00114935
Heightened Def Con from 0.00114935 ++++++++++++++++++++++to 0.00114936
Heightened Def Con from 0.00114936 +++++++++++++++++++++to 0.00114936
Heightened Def Con from 0.00114936 +++++++++++++++++++++to 0.00114936
Heightened Def Con from 0.00114936 ++++++++++++++++++to 0.00114937
Heightened Def Con from 0.00114937 +++++++++++++++++++to 0.00114937
Heightened Def Con from 0.00114937 +++++++++++++++++++to 0.00114938
Heightened Def Con from 0.00114938 +++++++++++++++++++to 0.00114938
Heightened Def Con from 0.00114938 ++++++++++++++++++to 0.00114938
Heightened Def Con from 0.00114938 ++++++++++++++++++++to 0.00114939
Heightened Def Con from 0.00114939 +++++++++++++++++++to 0.00114939
Heightened Def Con from 0.00114939 +++++++++++++++++++to 0.00114939
Heightened Def Con from 0.00114939 ++++++++++++++++++++to 0.0011494
Heightened Def Con from 0.0011494 ++++++++++++++++++++to 0.00114941
Heightened Def Con from 0.00114941 ++++++++++++++++++++to 0.00114941
Heightened Def Con from 0.00114941 ++++++++++++++++++++to 0.00114941
Heightened Def Con from 0.00114941 ++++++++++++++++++++to 0.00114941
Heightened Def Con from 0.00114941 ++++++++++++++++++++to 0.00114942
Heightened Def Con from 0.00114942 ++++++++++++++++++++to 0.00114942
Heightened Def Con from 0.00114942 +++++++++++++++++++++to 0.00114943
Heightened Def Con from 0.00114943 ++++++++++++++++++to 0.00114943
Heightened Def Con from 0.00114943 ++++++++++++++++++++to 0.00114944
Heightened Def Con from 0.00114944 ++++++++++++++++++++to 0.00114944
Heightened Def Con from 0.00114944 +++++++++++++++++++++to 0.00114944
Heightened Def Con from 0.00114944 ++++++++++++++++++++to 0.00114945
Heightened Def Con from 0.00114945 +++++++++++++++to 0.00114945
Heightened Def Con from 0.00114945 +++++++++++++++++++to 0.00114945
Heightened Def Con from 0.00114945 ++++++++++++++++++++to 0.00114946
Heightened Def Con from 0.00114946 +++++++++++++++++++++to 0.00114946
Heightened Def Con from 0.00114946 +++++++++++++++++to 0.00114946
Heightened Def Con from 0.00114946 ++++++++++++++++++++to 0.00114947
Heightened Def Con from 0.00114947 ++++++++++++++++++++to 0.00114947
Heightened Def Con from 0.00114947 ++++++++++++++++++++to 0.00114948
Heightened Def Con from 0.00114948 +++++++++++++++++++to 0.00114948
Heightened Def Con from 0.00114948 ++++++++++++++++++++++to 0.00114949
Heightened Def Con from 0.00114949 +++++++++++++++++++to 0.00114949
Heightened Def Con from 0.00114949 +++++++++++++++++++to 0.00114949
Heightened Def Con from 0.00114949 +++++++++++++++++++++to 0.0011495
Heightened Def Con from 0.0011495 ++++++++++++++++++++to 0.0011495
Heightened Def Con from 0.0011495 ++++++++++++++++++++to 0.00114951
Heightened Def Con from 0.00114951 ++++++++++++++++++++to 0.00114951
Heightened Def Con from 0.00114951 ++++++++++++++++++++to 0.00114951
Heightened Def Con from 0.00114951 +++++++++++++++++++++to 0.00114952
Heightened Def Con from 0.00114952 ++++++++++++++++++++to 0.00114952
Heightened Def Con from 0.00114952 ++++++++++++++++++++to 0.00114953
Heightened Def Con from 0.00114953 ++++++++++++++++++++to 0.00114953
Heightened Def Con from 0.00114953 +++++++++++++++++++to 0.00114953
Heightened Def Con from 0.00114953 ++++++++++++++++to 0.00114954
Heightened Def Con from 0.00114954 +++++++++++++++++++++to 0.00114954
Heightened Def Con from 0.00114954 ++++++++++++++++++++to 0.00114955
Heightened Def Con from 0.00114955 ++++++++++++++++++++to 0.00114955
Heightened Def Con from 0.00114955 +++++++++++++++++++++to 0.00114955
Heightened Def Con from 0.00114955 +++++++++++++++++++to 0.00114956
Heightened Def Con from 0.00114956 +++++++++++++++++++++to 0.00114957
Heightened Def Con from 0.00114957 +++++++++++++++++++++to 0.00114957
Heightened Def Con from 0.00114957 +++++++++++++++++++++to 0.00114958
Heightened Def Con from 0.00114958 +++++++++++++++++++++to 0.00114958
Heightened Def Con from 0.00114958 +++++++++++++++++++to 0.00114959
Heightened Def Con from 0.00114959 +++++++++++++++++++++to 0.00114959
Heightened Def Con from 0.00114959 ++++++++++++++++++++++to 0.0011496
Heightened Def Con from 0.0011496 ++++++++++++++++++++to 0.0011496
Heightened Def Con from 0.0011496 +++++++++++++++++++++to 0.00114961
Heightened Def Con from 0.00114961 +++++++++++++++++++++to 0.00114961
Heightened Def Con from 0.00114961 +++++++++++++++++++++to 0.00114961
Heightened Def Con from 0.00114961 ++++++++++++++++++++to 0.00114962
Heightened Def Con from 0.00114962 ++++++++++++++++++++to 0.00114962
Heightened Def Con from 0.00114962 ++++++++++++++++++++to 0.00114962
Heightened Def Con from 0.00114962 ++++++++++++++++++++to 0.00114962
Heightened Def Con from 0.00114962 ++++++++++++++++++++to 0.00114963
Heightened Def Con from 0.00114963 +++++++++++++++++++++to 0.00114963
Heightened Def Con from 0.00114963 +++++++++++++++++++to 0.00114964
Heightened Def Con from 0.00114964 +++++++++++++++++++++to 0.00114964
Heightened Def Con from 0.00114964 +++++++++++++++++++to 0.00114964
Heightened Def Con from 0.00114964 +++++++++++++++++++to 0.00114965
Heightened Def Con from 0.00114965 +++++++++++++++++++++to 0.00114965
Heightened Def Con from 0.00114965 +++++++++++++++++++++to 0.00114966
Heightened Def Con from 0.00114966 +++++++++++++++++++++to 0.00114966
Heightened Def Con from 0.00114966 ++++++++++++++++++++++to 0.00114966
Heightened Def Con from 0.00114966 ++++++++++++++++++++to 0.00114967
Heightened Def Con from 0.00114967 +++++++++++++++++++++to 0.00114968
Heightened Def Con from 0.00114968 ++++++++++++++++++++to 0.00114968
Heightened Def Con from 0.00114968 ++++++++++++++++++++to 0.00114968
Heightened Def Con from 0.00114968 ++++++++++++++++++++to 0.00114969
Heightened Def Con from 0.00114969 +++++++++++++++++++to 0.00114969
Heightened Def Con from 0.00114969 ++++++++++++++++++to 0.00114969
Heightened Def Con from 0.00114969 +++++++++++++++++++++to 0.0011497
Heightened Def Con from 0.0011497 +++++++++++++++++++++to 0.0011497
Heightened Def Con from 0.0011497 ++++++++++++++++++++to 0.00114971
Heightened Def Con from 0.00114971 +++++++++++++++++++to 0.00114971
Heightened Def Con from 0.00114971 ++++++++++++++++++++to 0.00114972
Heightened Def Con from 0.00114972 ++++++++++++++++++++to 0.00114973
Heightened Def Con from 0.00114973 +++++++++++++++++++to 0.00114973
Heightened Def Con from 0.00114973 +++++++++++++++++++++to 0.00114973
Heightened Def Con from 0.00114973 +++++++++++++++++++++to 0.00114974
Heightened Def Con from 0.00114974 +++++++++++++++++++++to 0.00114974
Heightened Def Con from 0.00114974 ++++++++++++++++++++to 0.00114974
Heightened Def Con from 0.00114974 ++++++++++++++++++++to 0.00114975
Heightened Def Con from 0.00114975 ++++++++++++++++++++to 0.00114975
Heightened Def Con from 0.00114975 +++++++++++++++++++to 0.00114976
Heightened Def Con from 0.00114976 ++++++++++++++++to 0.00114976
Heightened Def Con from 0.00114976 ++++++++++++++++++++++++++to 0.00114976
Heightened Def Con from 0.00114976 ++++++++++++++++++++++to 0.00114976
Heightened Def Con from 0.00114976 ++++++++++++++++++++to 0.00114977
Heightened Def Con from 0.00114977 +++++++++++++++++++++to 0.00114977
Heightened Def Con from 0.00114977 ++++++++++++++++++++++to 0.00114978
Heightened Def Con from 0.00114978 +++++++++++++++++++++to 0.00114978
Heightened Def Con from 0.00114978 ++++++++++++++++++++to 0.00114978
Heightened Def Con from 0.00114978 ++++++++++++++++++++to 0.00114979
Heightened Def Con from 0.00114979 ++++++++++++++++++++to 0.00114979
Heightened Def Con from 0.00114979 ++++++++++++++++++++to 0.0011498
Heightened Def Con from 0.0011498 ++++++++++++++++++++to 0.0011498
Heightened Def Con from 0.0011498 +++++++++++++++++++to 0.0011498
Heightened Def Con from 0.0011498 ++++++++++++++++++to 0.0011498
Heightened Def Con from 0.0011498 +++++++++++++++++++to 0.00114981
Heightened Def Con from 0.00114981 +++++++++++++++++++++to 0.00114981
Heightened Def Con from 0.00114981 ++++++++++++++++++++to 0.00114982
Heightened Def Con from 0.00114982 ++++++++++++++++++to 0.00114982
Heightened Def Con from 0.00114982 ++++++++++++++++++++to 0.00114983
Heightened Def Con from 0.00114983 ++++++++++++++++++++to 0.00114983
Heightened Def Con from 0.00114983 ++++++++++++++++++++to 0.00114983
Heightened Def Con from 0.00114983 +++++++++++++++++++to 0.00114984
Heightened Def Con from 0.00114984 ++++++++++++++++++++to 0.00114984
Heightened Def Con from 0.00114984 ++++++++++++++++++++to 0.00114985
Heightened Def Con from 0.00114985 ++++++++++++++++++++to 0.00114985
Heightened Def Con from 0.00114985 ++++++++++++++++++++to 0.00114985
Heightened Def Con from 0.00114985 ++++++++++++++++++++to 0.00114986
Heightened Def Con from 0.00114986 +++++++++++++++++to 0.00114986
Heightened Def Con from 0.00114986 ++++++++++++++++++++to 0.00114987
Heightened Def Con from 0.00114987 ++++++++++++++++++++to 0.00114987
Heightened Def Con from 0.00114987 ++++++++++++++++++++to 0.00114987
Heightened Def Con from 0.00114987 ++++++++++++++++++++to 0.00114988
Heightened Def Con from 0.00114988 +++++++++++++++++to 0.00114988
Heightened Def Con from 0.00114988 +++++++++++++++++++++to 0.00114988
Heightened Def Con from 0.00114988 +++++++++++++++++++++to 0.00114989
Heightened Def Con from 0.00114989 ++++++++++++++++++++to 0.00114989
Heightened Def Con from 0.00114989 ++++++++++++++++++++to 0.0011499
Heightened Def Con from 0.0011499 ++++++++++++++++++++to 0.0011499
Heightened Def Con from 0.0011499 +++++++++++++++++++to 0.0011499
Heightened Def Con from 0.0011499 +++++++++++++++++++++to 0.00114991
Heightened Def Con from 0.00114991 ++++++++++++++++++++to 0.00114991
Heightened Def Con from 0.00114991 +++++++++++++++++++to 0.00114992
Heightened Def Con from 0.00114992 ++++++++++++++++++++to 0.00114992
Heightened Def Con from 0.00114992 +++++++++++++++++++++to 0.00114993
Heightened Def Con from 0.00114993 ++++++++++++++++++++to 0.00114993
Heightened Def Con from 0.00114993 ++++++++++++++++++++to 0.00114993
Heightened Def Con from 0.00114993 ++++++++++++++++++++to 0.00114994
Heightened Def Con from 0.00114994 ++++++++++++++++++++to 0.00114994
Heightened Def Con from 0.00114994 ++++++++++++++++++++to 0.00114994
Heightened Def Con from 0.00114994 +++++++++++++++++++++to 0.00114995
Heightened Def Con from 0.00114995 ++++++++++++++++++++++to 0.00114995
Heightened Def Con from 0.00114995 +++++++++++++++++++to 0.00114995
Heightened Def Con from 0.00114995 +++++++++++++++++++++to 0.00114996
Heightened Def Con from 0.00114996 ++++++++++++++to 0.00114996
Heightened Def Con from 0.00114996 ++++++++++++++++++++++to 0.00114996
Heightened Def Con from 0.00114996 +++++++++++++++++++++to 0.00114997
Heightened Def Con from 0.00114997 +++++++++++++++++to 0.00114998
Heightened Def Con from 0.00114998 ++++++++++++++++++to 0.00114998
Heightened Def Con from 0.00114998 +++++++++++++++++++to 0.00114999
Heightened Def Con from 0.00114999 ++++++++++++++++++++to 0.00114999
Heightened Def Con from 0.00114999 ++++++++++++++++++++to 0.00114999
Heightened Def Con from 0.00114999 ++++++++++++++++++++to 0.00115
Heightened Def Con from 0.00115 ++++++++++++++++++++to 0.00115
Heightened Def Con from 0.00115 +++++++++++++++++++++to 0.00115
Heightened Def Con from 0.00115 ++++++++++++++++++++to 0.00115001
Heightened Def Con from 0.00115001 ++++++++++++++++++++to 0.00115001
Heightened Def Con from 0.00115001 +++++++++++++++++++++to 0.00115001
Heightened Def Con from 0.00115001 +++++++++++++++++++++to 0.00115002
Heightened Def Con from 0.00115002 +++++++++++++++++++++to 0.00115002
Heightened Def Con from 0.00115002 +++++++++++++++++++to 0.00115003
Heightened Def Con from 0.00115003 ++++++++++++++++++++to 0.00115003
Heightened Def Con from 0.00115003 ++++++++++++++++++++to 0.00115004
Heightened Def Con from 0.00115004 ++++++++++++++++++++to 0.00115004
Heightened Def Con from 0.00115004 +++++++++++++++++++++to 0.00115004
Heightened Def Con from 0.00115004 ++++++++++++++++++to 0.00115004
Heightened Def Con from 0.00115004 ++++++++++++++++++++to 0.00115005
Heightened Def Con from 0.00115005 ++++++++++++++++++++to 0.00115005
Heightened Def Con from 0.00115005 ++++++++++++++++++++to 0.00115005
Heightened Def Con from 0.00115005 +++++++++++++++++++++to 0.00115006
Heightened Def Con from 0.00115006 +++++++++++++++++++++to 0.00115006
Heightened Def Con from 0.00115006 ++++++++++++++++++++to 0.00115006
Heightened Def Con from 0.00115006 +++++++++++++++++++++to 0.00115007
Heightened Def Con from 0.00115007 ++++++++++++++++++++to 0.00115007
Heightened Def Con from 0.00115007 ++++++++++++++++++++to 0.00115008
Heightened Def Con from 0.00115008 ++++++++++++++++++++to 0.00115008
Heightened Def Con from 0.00115008 ++++++++++++++++++++to 0.00115008
Heightened Def Con from 0.00115008 +++++++++++++++++++to 0.00115009
Heightened Def Con from 0.00115009 +++++++++++++++++++++to 0.0011501
Heightened Def Con from 0.0011501 +++++++++++++++++++++to 0.0011501
Heightened Def Con from 0.0011501 ++++++++++++++++++++to 0.00115011
Heightened Def Con from 0.00115011 +++++++++++++++++++to 0.00115011
Heightened Def Con from 0.00115011 ++++++++++++++++++to 0.00115012
Heightened Def Con from 0.00115012 +++++++++++++++++++++to 0.00115012
Heightened Def Con from 0.00115012 +++++++++++++++++++++to 0.00115013
Heightened Def Con from 0.00115013 ++++++++++++++++++++to 0.00115014
Heightened Def Con from 0.00115014 ++++++++++++++++++++to 0.00115014
Heightened Def Con from 0.00115014 ++++++++++++++++++++to 0.00115014
Heightened Def Con from 0.00115014 +++++++++++++++++++to 0.00115015
Heightened Def Con from 0.00115015 ++++++++++++++++++++++to 0.00115016
Heightened Def Con from 0.00115016 +++++++++++++++++++++to 0.00115016
Heightened Def Con from 0.00115016 +++++++++++++++++++to 0.00115016
Heightened Def Con from 0.00115016 ++++++++++++++++++to 0.00115017
Heightened Def Con from 0.00115017 +++++++++++++++++++to 0.00115017
Heightened Def Con from 0.00115017 +++++++++++++++++++++to 0.00115017
Heightened Def Con from 0.00115017 ++++++++++++++++++++to 0.00115018
Heightened Def Con from 0.00115018 ++++++++++++++++++++to 0.00115018
Heightened Def Con from 0.00115018 ++++++++++++++++++++to 0.00115018
Heightened Def Con from 0.00115018 ++++++++++++++++++++to 0.00115019
Heightened Def Con from 0.00115019 ++++++++++++++++++++to 0.00115019
Heightened Def Con from 0.00115019 +++++++++++++++++++++to 0.00115019
Heightened Def Con from 0.00115019 +++++++++++++++++to 0.0011502
Heightened Def Con from 0.0011502 ++++++++++++++++++++to 0.0011502
Heightened Def Con from 0.0011502 +++++++++++++++++++++to 0.00115021
Heightened Def Con from 0.00115021 +++++++++++++++++++++to 0.00115021
Heightened Def Con from 0.00115021 +++++++++++++++++++++to 0.00115022
Heightened Def Con from 0.00115022 +++++++++++++++++++++to 0.00115022
Heightened Def Con from 0.00115022 +++++++++++++++++++++to 0.00115023
Heightened Def Con from 0.00115023 ++++++++++++++++++++to 0.00115023
Heightened Def Con from 0.00115023 ++++++++++++++++++++to 0.00115024
Heightened Def Con from 0.00115024 ++++++++++++++++++++to 0.00115024
Heightened Def Con from 0.00115024 ++++++++++++++++++++to 0.00115025
Heightened Def Con from 0.00115025 ++++++++++++++++++++to 0.00115025
Heightened Def Con from 0.00115025 ++++++++++++++++++++to 0.00115025
Heightened Def Con from 0.00115025 ++++++++++++++++++++to 0.00115025
Heightened Def Con from 0.00115025 ++++++++++++++++++++to 0.00115026
Heightened Def Con from 0.00115026 +++++++++++++++++++++to 0.00115026
Heightened Def Con from 0.00115026 ++++++++++++++++++++to 0.00115027
Heightened Def Con from 0.00115027 ++++++++++++++++++++to 0.00115027
Heightened Def Con from 0.00115027 ++++++++++++++++++++to 0.00115027
Heightened Def Con from 0.00115027 +++++++++++++++++++++to 0.00115028
Heightened Def Con from 0.00115028 ++++++++++++++++++++to 0.00115028
Heightened Def Con from 0.00115028 +++++++++++++++++to 0.00115028
Heightened Def Con from 0.00115028 ++++++++++++++++++++++++++to 0.00115028
Heightened Def Con from 0.00115028 ++++++++++++++++++++to 0.00115028
Heightened Def Con from 0.00115028 ++++++++++++++++++++to 0.00115028
Heightened Def Con from 0.00115028 ++++++++++++++++to 0.00115029
Heightened Def Con from 0.00115029 +++++++++++++++++++++to 0.0011503
Heightened Def Con from 0.0011503 +++++++++++++++++++++to 0.0011503
Heightened Def Con from 0.0011503 +++++++++++++++++++++to 0.0011503
Heightened Def Con from 0.0011503 +++++++++++++++++++++to 0.00115031
Heightened Def Con from 0.00115031 ++++++++++++++++++++to 0.00115031
Heightened Def Con from 0.00115031 +++++++++++++++++++to 0.00115032
Heightened Def Con from 0.00115032 ++++++++++++++++++++to 0.00115032
Heightened Def Con from 0.00115032 ++++++++++++++++++to 0.00115032
Heightened Def Con from 0.00115032 ++++++++++++++++++++to 0.00115033
Heightened Def Con from 0.00115033 +++++++++++++++++++++to 0.00115033
Heightened Def Con from 0.00115033 +++++++++++++++++++++to 0.00115034
Heightened Def Con from 0.00115034 +++++++++++++++++++++to 0.00115034
Heightened Def Con from 0.00115034 +++++++++++++++++++++to 0.00115034
Heightened Def Con from 0.00115034 +++++++++++++++++++++to 0.00115035
Heightened Def Con from 0.00115035 ++++++++++++++++++++to 0.00115035
Heightened Def Con from 0.00115035 ++++++++++++++++++++to 0.00115036
Heightened Def Con from 0.00115036 ++++++++++++++++++++to 0.00115036
Heightened Def Con from 0.00115036 +++++++++++++++++++++to 0.00115037
Heightened Def Con from 0.00115037 +++++++++++++++++++++to 0.00115037
Heightened Def Con from 0.00115037 ++++++++++++++++++++to 0.00115037
Heightened Def Con from 0.00115037 +++++++++++++++++++++to 0.00115038
Heightened Def Con from 0.00115038 ++++++++++++++++++++to 0.00115038
Heightened Def Con from 0.00115038 +++++++++++++++++++++to 0.00115039
Heightened Def Con from 0.00115039 ++++++++++++++++++++to 0.00115039
Heightened Def Con from 0.00115039 +++++++++++++++++++to 0.0011504
Heightened Def Con from 0.0011504 ++++++++++++++++++++to 0.0011504
Heightened Def Con from 0.0011504 ++++++++++++++++++++to 0.00115041
Heightened Def Con from 0.00115041 ++++++++++++++++++++to 0.00115041
Heightened Def Con from 0.00115041 ++++++++++++++++++++to 0.00115041
Heightened Def Con from 0.00115041 ++++++++++++++++++++to 0.00115042
Heightened Def Con from 0.00115042 ++++++++++++++++++++to 0.00115042
Heightened Def Con from 0.00115042 ++++++++++++++++++++++to 0.00115042
Heightened Def Con from 0.00115042 +++++++++++++++++++++to 0.00115043
Heightened Def Con from 0.00115043 +++++++++++++++++++++to 0.00115043
Heightened Def Con from 0.00115043 ++++++++++++++++++++to 0.00115043
Heightened Def Con from 0.00115043 ++++++++++++++++++++to 0.00115044
Heightened Def Con from 0.00115044 ++++++++++++++++++++to 0.00115044
Heightened Def Con from 0.00115044 +++++++++++++++++++to 0.00115045
Heightened Def Con from 0.00115045 ++++++++++++++++++++to 0.00115045
Heightened Def Con from 0.00115045 +++++++++++++++++++++to 0.00115046
Heightened Def Con from 0.00115046 +++++++++++++++++++to 0.00115046
Heightened Def Con from 0.00115046 ++++++++++++++++++++to 0.00115047
Heightened Def Con from 0.00115047 +++++++++++++++++++++to 0.00115047
Heightened Def Con from 0.00115047 ++++++++++++++++++++to 0.00115047
Heightened Def Con from 0.00115047 +++++++++++++++++++to 0.00115048
Heightened Def Con from 0.00115048 ++++++++++++++++++++++to 0.00115048
Heightened Def Con from 0.00115048 +++++++++++++++++++++to 0.00115048
Heightened Def Con from 0.00115048 ++++++++++++++++++++to 0.00115049
Heightened Def Con from 0.00115049 +++++++++++++++++++to 0.00115049
Heightened Def Con from 0.00115049 ++++++++++++++++++to 0.00115049
Heightened Def Con from 0.00115049 +++++++++++++++++++to 0.0011505
Heightened Def Con from 0.0011505 ++++++++++++++++to 0.0011505
Heightened Def Con from 0.0011505 ++++++++++++++++++to 0.0011505
Heightened Def Con from 0.0011505 ++++++++++++++++++to 0.00115051
Heightened Def Con from 0.00115051 +++++++++++++++++++++to 0.00115051
Heightened Def Con from 0.00115051 +++++++++++++++++++++to 0.00115052
Heightened Def Con from 0.00115052 ++++++++++++++++++++to 0.00115052
Heightened Def Con from 0.00115052 +++++++++++++++++++++to 0.00115053
Heightened Def Con from 0.00115053 ++++++++++++++++++to 0.00115053
Heightened Def Con from 0.00115053 ++++++++++++++++++to 0.00115053
Heightened Def Con from 0.00115053 +++++++++++++++++++++to 0.00115054
Heightened Def Con from 0.00115054 +++++++++++++++++++to 0.00115054
Heightened Def Con from 0.00115054 +++++++++++++++++++++to 0.00115054
Heightened Def Con from 0.00115054 ++++++++++++++++++++to 0.00115055
Heightened Def Con from 0.00115055 ++++++++++++++++++++to 0.00115055
Heightened Def Con from 0.00115055 ++++++++++++++++++to 0.00115056
Heightened Def Con from 0.00115056 +++++++++++++++++++to 0.00115056
Heightened Def Con from 0.00115056 ++++++++++++++++++++to 0.00115056
Heightened Def Con from 0.00115056 ++++++++++++++++++++to 0.00115056
Heightened Def Con from 0.00115056 ++++++++++++++++++++to 0.00115057
Heightened Def Con from 0.00115057 ++++++++++++++++++++to 0.00115057
Heightened Def Con from 0.00115057 +++++++++++++++++++to 0.00115057
Heightened Def Con from 0.00115057 ++++++++++++++++++++to 0.00115058
Heightened Def Con from 0.00115058 ++++++++++++++++++++to 0.00115059
Heightened Def Con from 0.00115059 ++++++++++++++++++++to 0.00115059
Heightened Def Con from 0.00115059 ++++++++++++++++++++to 0.00115059
Heightened Def Con from 0.00115059 +++++++++++++++++++++to 0.0011506
Heightened Def Con from 0.0011506 +++++++++++++++++++++to 0.0011506
Heightened Def Con from 0.0011506 ++++++++++++++++++++to 0.0011506
Heightened Def Con from 0.0011506 ++++++++++++++++++++to 0.00115061
Heightened Def Con from 0.00115061 ++++++++++++++++++++to 0.00115061
Heightened Def Con from 0.00115061 ++++++++++++++++++++to 0.00115062
Heightened Def Con from 0.00115062 ++++++++++++++++++++to 0.00115062
Heightened Def Con from 0.00115062 ++++++++++++++++++++to 0.00115062
Heightened Def Con from 0.00115062 ++++++++++++++++++++to 0.00115063
Heightened Def Con from 0.00115063 ++++++++++++++++++++to 0.00115063
Heightened Def Con from 0.00115063 ++++++++++++++++++++to 0.00115063
Heightened Def Con from 0.00115063 ++++++++++++++++++++to 0.00115064
Heightened Def Con from 0.00115064 ++++++++++++++++++++to 0.00115064
Heightened Def Con from 0.00115064 ++++++++++++++++++++++to 0.00115064
Heightened Def Con from 0.00115064 ++++++++++++++++++++to 0.00115065
Heightened Def Con from 0.00115065 ++++++++++++++++++++to 0.00115065
Heightened Def Con from 0.00115065 ++++++++++++++++++++to 0.00115066
Heightened Def Con from 0.00115066 +++++++++++++++++++to 0.00115066
Heightened Def Con from 0.00115066 ++++++++++++++++++++++to 0.00115067
Heightened Def Con from 0.00115067 ++++++++++++++++++++to 0.00115067
Heightened Def Con from 0.00115067 ++++++++++++++++++++to 0.00115067
Heightened Def Con from 0.00115067 +++++++++++++++++++to 0.00115068
Heightened Def Con from 0.00115068 +++++++++++++++++++to 0.00115068
Heightened Def Con from 0.00115068 +++++++++++++++++++++to 0.00115069
Heightened Def Con from 0.00115069 ++++++++++++++++++++to 0.00115069
Heightened Def Con from 0.00115069 ++++++++++++++++++++to 0.0011507
Heightened Def Con from 0.0011507 +++++++++++++++++++++to 0.0011507
Heightened Def Con from 0.0011507 ++++++++++++++++++++to 0.0011507
Heightened Def Con from 0.0011507 +++++++++++++++++++++to 0.00115071
Heightened Def Con from 0.00115071 +++++++++++++++++++++to 0.00115071
Heightened Def Con from 0.00115071 ++++++++++++++++++++to 0.00115072
Heightened Def Con from 0.00115072 ++++++++++++++++++to 0.00115072
Heightened Def Con from 0.00115072 +++++++++++++++++++to 0.00115073
Heightened Def Con from 0.00115073 ++++++++++++++++++to 0.00115073
Heightened Def Con from 0.00115073 ++++++++++++++++to 0.00115074
Heightened Def Con from 0.00115074 +++++++++++++++++to 0.00115074
Heightened Def Con from 0.00115074 ++++++++++++++++++++to 0.00115075
Heightened Def Con from 0.00115075 ++++++++++++++++++++to 0.00115075
Heightened Def Con from 0.00115075 ++++++++++++++++++++to 0.00115076
Heightened Def Con from 0.00115076 +++++++++++++++++++to 0.00115076
Heightened Def Con from 0.00115076 +++++++++++++++++++++to 0.00115076
Heightened Def Con from 0.00115076 +++++++++++++++++++++to 0.00115077
Heightened Def Con from 0.00115077 ++++++++++++++++++++to 0.00115077
Heightened Def Con from 0.00115077 ++++++++++++++++++to 0.00115078
Heightened Def Con from 0.00115078 ++++++++++++++++++++to 0.00115078
Heightened Def Con from 0.00115078 ++++++++++++++++++++to 0.00115079
Heightened Def Con from 0.00115079 ++++++++++++++++++++to 0.00115079
Heightened Def Con from 0.00115079 ++++++++++++++++++++to 0.00115079
Heightened Def Con from 0.00115079 +++++++++++++++++++++to 0.0011508
Heightened Def Con from 0.0011508 +++++++++++++++++++++to 0.0011508
Heightened Def Con from 0.0011508 ++++++++++++++++++++to 0.0011508
Heightened Def Con from 0.0011508 ++++++++++++++++++to 0.00115081
Heightened Def Con from 0.00115081 ++++++++++++++++++++to 0.00115081
Heightened Def Con from 0.00115081 ++++++++++++++++++++to 0.00115081
Heightened Def Con from 0.00115081 ++++++++++++++++++++to 0.00115082
Heightened Def Con from 0.00115082 ++++++++++++++++++++to 0.00115082
Heightened Def Con from 0.00115082 +++++++++++++++++++++to 0.00115082
Heightened Def Con from 0.00115082 +++++++++++++++++++++to 0.00115083
Heightened Def Con from 0.00115083 ++++++++++++++++++++to 0.00115083
Heightened Def Con from 0.00115083 +++++++++++++++++++++to 0.00115083
Heightened Def Con from 0.00115083 ++++++++++++++++++++to 0.00115084
Heightened Def Con from 0.00115084 +++++++++++++++++++to 0.00115084
Heightened Def Con from 0.00115084 ++++++++++++++++++++++to 0.00115085
Heightened Def Con from 0.00115085 +++++++++++++++++++++to 0.00115085
Heightened Def Con from 0.00115085 ++++++++++++++++++++to 0.00115085
Heightened Def Con from 0.00115085 ++++++++++++++++++to 0.00115086
Heightened Def Con from 0.00115086 ++++++++++++++++to 0.00115086
Heightened Def Con from 0.00115086 ++++++++++++++++++++to 0.00115086
Heightened Def Con from 0.00115086 ++++++++++++++++++++to 0.00115087
Heightened Def Con from 0.00115087 +++++++++++++++++++to 0.00115087
Heightened Def Con from 0.00115087 ++++++++++++++++++++to 0.00115088
Heightened Def Con from 0.00115088 ++++++++++++++++++++to 0.00115088
Heightened Def Con from 0.00115088 +++++++++++++++++++to 0.00115088
Heightened Def Con from 0.00115088 +++++++++++++++++to 0.00115089
Heightened Def Con from 0.00115089 +++++++++++++++++++++to 0.00115089
Heightened Def Con from 0.00115089 ++++++++++++++++++++to 0.00115089
Heightened Def Con from 0.00115089 ++++++++++++++++++++to 0.0011509
Heightened Def Con from 0.0011509 +++++++++++++++++++to 0.0011509
Heightened Def Con from 0.0011509 ++++++++++++++++++++to 0.00115091
Heightened Def Con from 0.00115091 ++++++++++++++++++++to 0.00115091
Heightened Def Con from 0.00115091 ++++++++++++++++++++to 0.00115091
Heightened Def Con from 0.00115091 ++++++++++++++++++to 0.00115092
Heightened Def Con from 0.00115092 ++++++++++++++++++++to 0.00115092
Heightened Def Con from 0.00115092 +++++++++++++++++++++to 0.00115092
Heightened Def Con from 0.00115092 +++++++++++++++++++++to 0.00115093
Heightened Def Con from 0.00115093 ++++++++++++++++++++to 0.00115093
Heightened Def Con from 0.00115093 ++++++++++++++++++++to 0.00115094
Heightened Def Con from 0.00115094 ++++++++++++++++++++to 0.00115094
Heightened Def Con from 0.00115094 ++++++++++++++++++++to 0.00115094
Heightened Def Con from 0.00115094 +++++++++++++++++++to 0.00115095
Heightened Def Con from 0.00115095 ++++++++++++++++++++to 0.00115095
Heightened Def Con from 0.00115095 ++++++++++++++++++++to 0.00115096
Heightened Def Con from 0.00115096 ++++++++++++++++++to 0.00115096
Heightened Def Con from 0.00115096 ++++++++++++++++to 0.00115096
Heightened Def Con from 0.00115096 ++++++++++++++++++++++to 0.00115097
Heightened Def Con from 0.00115097 +++++++++++++++++++++to 0.00115097
Heightened Def Con from 0.00115097 +++++++++++++++++++++to 0.00115098
Heightened Def Con from 0.00115098 ++++++++++++++++++to 0.00115098
Heightened Def Con from 0.00115098 +++++++++++++++++++to 0.00115098
Heightened Def Con from 0.00115098 ++++++++++++++++++++to 0.00115099
Heightened Def Con from 0.00115099 ++++++++++++++++++++to 0.001151
Heightened Def Con from 0.001151 ++++++++++++++++++++to 0.001151
Heightened Def Con from 0.001151 +++++++++++++++++++to 0.00115101
Heightened Def Con from 0.00115101 ++++++++++++++++++++to 0.00115101
Heightened Def Con from 0.00115101 +++++++++++++++++++++to 0.00115102
Heightened Def Con from 0.00115102 ++++++++++++++++++++to 0.00115102
Heightened Def Con from 0.00115102 ++++++++++++++++++++to 0.00115102
Heightened Def Con from 0.00115102 +++++++++++++++++++++to 0.00115103
Heightened Def Con from 0.00115103 ++++++++++++++++++++to 0.00115103
Heightened Def Con from 0.00115103 +++++++++++++++++++++to 0.00115104
Heightened Def Con from 0.00115104 +++++++++++++++++++++to 0.00115104
Heightened Def Con from 0.00115104 ++++++++++++++++++++to 0.00115105
Heightened Def Con from 0.00115105 ++++++++++++++++++++to 0.00115105
Heightened Def Con from 0.00115105 ++++++++++++++++++++to 0.00115105
Heightened Def Con from 0.00115105 +++++++++++++++++++++to 0.00115106
Heightened Def Con from 0.00115106 ++++++++++++++++++++to 0.00115106
Heightened Def Con from 0.00115106 +++++++++++++++++++++to 0.00115106
Heightened Def Con from 0.00115106 ++++++++++++++++++++to 0.00115107
Heightened Def Con from 0.00115107 ++++++++++++++++++++to 0.00115107
Heightened Def Con from 0.00115107 +++++++++++++++++++++to 0.00115108
Heightened Def Con from 0.00115108 +++++++++++++++++++++to 0.00115108
Heightened Def Con from 0.00115108 ++++++++++++++++++++to 0.00115109
Heightened Def Con from 0.00115109 +++++++++++++++++++++to 0.00115109
Heightened Def Con from 0.00115109 +++++++++++++++++++++to 0.0011511
Heightened Def Con from 0.0011511 +++++++++++++++++++++to 0.0011511
Heightened Def Con from 0.0011511 +++++++++++++++++++++to 0.00115111
Heightened Def Con from 0.00115111 ++++++++++++++++++++to 0.00115111
Heightened Def Con from 0.00115111 +++++++++++++++++++++to 0.00115112
Heightened Def Con from 0.00115112 ++++++++++++++++++++to 0.00115112
Heightened Def Con from 0.00115112 ++++++++++++++++++++to 0.00115112
Heightened Def Con from 0.00115112 ++++++++++++++++++++to 0.00115113
Heightened Def Con from 0.00115113 ++++++++++++++++++++to 0.00115113
Heightened Def Con from 0.00115113 ++++++++++++++++++++to 0.00115113
Heightened Def Con from 0.00115113 +++++++++++++++++++to 0.00115114
Heightened Def Con from 0.00115114 ++++++++++++++++++++to 0.00115114
Heightened Def Con from 0.00115114 ++++++++++++++++++++to 0.00115114
Heightened Def Con from 0.00115114 +++++++++++++++++++to 0.00115115
Heightened Def Con from 0.00115115 +++++++++++++++++++++to 0.00115115
Heightened Def Con from 0.00115115 +++++++++++++++++to 0.00115116
Heightened Def Con from 0.00115116 +++++++++++++++++++++to 0.00115116
Heightened Def Con from 0.00115116 ++++++++++++++++++++to 0.00115117
Heightened Def Con from 0.00115117 +++++++++++++++++++to 0.00115117
Heightened Def Con from 0.00115117 ++++++++++++++++++++to 0.00115118
Heightened Def Con from 0.00115118 ++++++++++++++++++++to 0.00115118
Heightened Def Con from 0.00115118 ++++++++++++++++++++to 0.00115119
Heightened Def Con from 0.00115119 +++++++++++++++++++to 0.00115119
Heightened Def Con from 0.00115119 ++++++++++++++++++to 0.00115119
Heightened Def Con from 0.00115119 ++++++++++++++++++++to 0.0011512
Heightened Def Con from 0.0011512 ++++++++++++++++++++to 0.00115121
Heightened Def Con from 0.00115121 ++++++++++++++++++++to 0.00115121
Heightened Def Con from 0.00115121 ++++++++++++++++++++to 0.00115122
Heightened Def Con from 0.00115122 ++++++++++++++++++++to 0.00115122
Heightened Def Con from 0.00115122 ++++++++++++++++++++to 0.00115123
Heightened Def Con from 0.00115123 ++++++++++++++++++++to 0.00115123
Heightened Def Con from 0.00115123 ++++++++++++++++++++to 0.00115123
Heightened Def Con from 0.00115123 +++++++++++++++++++++to 0.00115124
Heightened Def Con from 0.00115124 ++++++++++++++++++++to 0.00115125
Heightened Def Con from 0.00115125 ++++++++++++++++++++to 0.00115125
Heightened Def Con from 0.00115125 +++++++++++++++++++to 0.00115125
Heightened Def Con from 0.00115125 ++++++++++++++++++to 0.00115126
Heightened Def Con from 0.00115126 +++++++++++++++++++++to 0.00115126
Heightened Def Con from 0.00115126 +++++++++++++++++++to 0.00115126
Heightened Def Con from 0.00115126 ++++++++++++++++++to 0.00115127
Heightened Def Con from 0.00115127 +++++++++++++++++++++to 0.00115127
Heightened Def Con from 0.00115127 ++++++++++++++++++to 0.00115128
Heightened Def Con from 0.00115128 +++++++++++++++++to 0.00115128
Heightened Def Con from 0.00115128 +++++++++++++++++to 0.00115128
Heightened Def Con from 0.00115128 ++++++++++++++++++++to 0.00115129
Heightened Def Con from 0.00115129 +++++++++++++++++++++to 0.00115129
Heightened Def Con from 0.00115129 +++++++++++++++++++++to 0.0011513
Heightened Def Con from 0.0011513 ++++++++++++++++++++to 0.0011513
Heightened Def Con from 0.0011513 ++++++++++++++++++to 0.0011513
Heightened Def Con from 0.0011513 ++++++++++++++++to 0.0011513
Heightened Def Con from 0.0011513 +++++++++++++++++++++to 0.00115131
Heightened Def Con from 0.00115131 +++++++++++++++++++to 0.00115131
Heightened Def Con from 0.00115131 ++++++++++++++to 0.00115131
Heightened Def Con from 0.00115131 ++++++++++++++++++++to 0.00115132
Heightened Def Con from 0.00115132 +++++++++++++++++++to 0.00115132
Heightened Def Con from 0.00115132 ++++++++++++++++++++to 0.00115133
Heightened Def Con from 0.00115133 ++++++++++++++++++++to 0.00115133
Heightened Def Con from 0.00115133 ++++++++++++++++++++to 0.00115133
Heightened Def Con from 0.00115133 ++++++++++++++++++++to 0.00115134
Heightened Def Con from 0.00115134 ++++++++++++++++++++to 0.00115134
Heightened Def Con from 0.00115134 ++++++++++++++++++++to 0.00115134
Heightened Def Con from 0.00115134 +++++++++++++++++++++to 0.00115135
Heightened Def Con from 0.00115135 ++++++++++++++++++++++to 0.00115135
Heightened Def Con from 0.00115135 +++++++++++++++++++++to 0.00115136
Heightened Def Con from 0.00115136 +++++++++++++++++++++to 0.00115136
Heightened Def Con from 0.00115136 +++++++++++++++++++++to 0.00115137
Heightened Def Con from 0.00115137 +++++++++++++++++++++to 0.00115137
Heightened Def Con from 0.00115137 ++++++++++++++++++++to 0.00115137
Heightened Def Con from 0.00115137 +++++++++++++++++++to 0.00115137
Heightened Def Con from 0.00115137 ++++++++++++++++to 0.00115138
Heightened Def Con from 0.00115138 ++++++++++++++++++++to 0.00115138
Heightened Def Con from 0.00115138 ++++++++++++++++++++to 0.00115139
Heightened Def Con from 0.00115139 +++++++++++++++++++++to 0.00115139
Heightened Def Con from 0.00115139 ++++++++++++++++++++++to 0.0011514
Heightened Def Con from 0.0011514 +++++++++++++++++++to 0.0011514
Heightened Def Con from 0.0011514 ++++++++++++++++++++to 0.00115141
Heightened Def Con from 0.00115141 +++++++++++++++++++++to 0.00115141
Heightened Def Con from 0.00115141 +++++++++++++++++++++to 0.00115141
Heightened Def Con from 0.00115141 +++++++++++++++++++++to 0.00115142
Heightened Def Con from 0.00115142 ++++++++++++++++++++to 0.00115142
Heightened Def Con from 0.00115142 ++++++++++++++++++++to 0.00115142
Heightened Def Con from 0.00115142 ++++++++++++++++++++to 0.00115143
Heightened Def Con from 0.00115143 +++++++++++++++++++to 0.00115143
Heightened Def Con from 0.00115143 +++++++++++++++++++++to 0.00115143
Heightened Def Con from 0.00115143 +++++++++++++++++++++to 0.00115144
Heightened Def Con from 0.00115144 ++++++++++++++++++++to 0.00115144
Heightened Def Con from 0.00115144 ++++++++++++++++++++++++++to 0.00115144
Heightened Def Con from 0.00115144 ++++++++++++++++++++++to 0.00115145
Heightened Def Con from 0.00115145 ++++++++++++++++++++to 0.00115145
Heightened Def Con from 0.00115145 ++++++++++++++++++++to 0.00115145
Heightened Def Con from 0.00115145 ++++++++++++++++++++to 0.00115146
Heightened Def Con from 0.00115146 ++++++++++++++++++to 0.00115146
Heightened Def Con from 0.00115146 ++++++++++++++++++++to 0.00115147
Heightened Def Con from 0.00115147 ++++++++++++++++++++to 0.00115147
Heightened Def Con from 0.00115147 ++++++++++++++++++++to 0.00115147
Heightened Def Con from 0.00115147 ++++++++++++++++++++to 0.00115148
Heightened Def Con from 0.00115148 +++++++++++++++++++to 0.00115148
Heightened Def Con from 0.00115148 +++++++++++++++++++to 0.00115148
Heightened Def Con from 0.00115148 ++++++++++++++++++++to 0.00115149
Heightened Def Con from 0.00115149 +++++++++++++++++++++to 0.00115149
Heightened Def Con from 0.00115149 +++++++++++++++++++++to 0.0011515
Heightened Def Con from 0.0011515 ++++++++++++++++++++to 0.0011515
Heightened Def Con from 0.0011515 +++++++++++++++++++++to 0.00115151
Heightened Def Con from 0.00115151 ++++++++++++++++++++to 0.00115151
Heightened Def Con from 0.00115151 ++++++++++++++++++++to 0.00115152
Heightened Def Con from 0.00115152 ++++++++++++++++++++to 0.00115152
Heightened Def Con from 0.00115152 ++++++++++++++++++++to 0.00115152
Heightened Def Con from 0.00115152 ++++++++++++++++++++to 0.00115153
Heightened Def Con from 0.00115153 ++++++++++++++++++++to 0.00115153
Heightened Def Con from 0.00115153 +++++++++++++++++++++to 0.00115154
Heightened Def Con from 0.00115154 ++++++++++++++++++++to 0.00115154
Heightened Def Con from 0.00115154 ++++++++++++++++++++to 0.00115154
Heightened Def Con from 0.00115154 ++++++++++++++++++++to 0.00115155
Heightened Def Con from 0.00115155 ++++++++++++++++++++to 0.00115155
Heightened Def Con from 0.00115155 ++++++++++++++++++++to 0.00115155
Heightened Def Con from 0.00115155 ++++++++++++++++++++to 0.00115156
Heightened Def Con from 0.00115156 ++++++++++++++++++++to 0.00115156
Heightened Def Con from 0.00115156 +++++++++++++++++++to 0.00115156
Heightened Def Con from 0.00115156 ++++++++++++++++++to 0.00115157
Heightened Def Con from 0.00115157 ++++++++++++++++to 0.00115157
Heightened Def Con from 0.00115157 ++++++++++++++++to 0.00115158
Heightened Def Con from 0.00115158 +++++++++++++++++to 0.00115158
Heightened Def Con from 0.00115158 ++++++++++++++++++++to 0.00115159
Heightened Def Con from 0.00115159 ++++++++++++++++++++to 0.00115159
Heightened Def Con from 0.00115159 +++++++++++++++++++++to 0.0011516
Heightened Def Con from 0.0011516 ++++++++++++++++++++to 0.0011516
Heightened Def Con from 0.0011516 +++++++++++++++++++++to 0.00115161
Heightened Def Con from 0.00115161 ++++++++++++++++++++to 0.00115161
Heightened Def Con from 0.00115161 ++++++++++++++++++++++to 0.00115162
Heightened Def Con from 0.00115162 ++++++++++++++++++++to 0.00115162
Heightened Def Con from 0.00115162 ++++++++++++++++++++to 0.00115163
Heightened Def Con from 0.00115163 +++++++++++++++++++++to 0.00115163
Heightened Def Con from 0.00115163 +++++++++++++++++++++to 0.00115164
Heightened Def Con from 0.00115164 +++++++++++++++++++to 0.00115164
Heightened Def Con from 0.00115164 ++++++++++++++++++to 0.00115164
Heightened Def Con from 0.00115164 +++++++++++++++++to 0.00115165
Heightened Def Con from 0.00115165 +++++++++++++++++to 0.00115165
Heightened Def Con from 0.00115165 ++++++++++++++++to 0.00115166
Heightened Def Con from 0.00115166 +++++++++++++++++++++to 0.00115166
Heightened Def Con from 0.00115166 ++++++++++++++++++++to 0.00115167
Heightened Def Con from 0.00115167 +++++++++++++++++++to 0.00115167
Heightened Def Con from 0.00115167 +++++++++++++++++++to 0.00115167
Heightened Def Con from 0.00115167 +++++++++++++++++++++to 0.00115168
Heightened Def Con from 0.00115168 +++++++++++++++++++++to 0.00115168
Heightened Def Con from 0.00115168 ++++++++++++++++++++to 0.00115169
Heightened Def Con from 0.00115169 ++++++++++++++++++to 0.00115169
Heightened Def Con from 0.00115169 ++++++++++++++++++++to 0.0011517
Heightened Def Con from 0.0011517 ++++++++++++++++++++to 0.0011517
Heightened Def Con from 0.0011517 +++++++++++++++++++++to 0.0011517
Heightened Def Con from 0.0011517 +++++++++++++++++++++to 0.00115171
Heightened Def Con from 0.00115171 ++++++++++++++++++++to 0.00115171
Heightened Def Con from 0.00115171 ++++++++++++++++++to 0.00115171
Heightened Def Con from 0.00115171 +++++++++++++++++++++to 0.00115172
Heightened Def Con from 0.00115172 ++++++++++++++++++++to 0.00115172
Heightened Def Con from 0.00115172 ++++++++++++++++++++to 0.00115172
Heightened Def Con from 0.00115172 +++++++++++++++++++to 0.00115173
Heightened Def Con from 0.00115173 ++++++++++++++++++++to 0.00115173
Heightened Def Con from 0.00115173 ++++++++++++++++++++to 0.00115173
Heightened Def Con from 0.00115173 +++++++++++++++++++++to 0.00115174
Heightened Def Con from 0.00115174 ++++++++++++++++++++++to 0.00115175
Heightened Def Con from 0.00115175 ++++++++++++++++++++++to 0.00115175
Heightened Def Con from 0.00115175 ++++++++++++++++++++++to 0.00115175
Heightened Def Con from 0.00115175 ++++++++++++++++++++++to 0.00115176
Heightened Def Con from 0.00115176 +++++++++++++++++++++to 0.00115176
Heightened Def Con from 0.00115176 ++++++++++++++++++++to 0.00115177
Heightened Def Con from 0.00115177 +++++++++++++++++++to 0.00115177
Heightened Def Con from 0.00115177 ++++++++++++++++++++to 0.00115178
Heightened Def Con from 0.00115178 ++++++++++++++++++++to 0.00115178
Heightened Def Con from 0.00115178 ++++++++++++++++++++to 0.00115179
Heightened Def Con from 0.00115179 ++++++++++++++++++++to 0.00115179
Heightened Def Con from 0.00115179 +++++++++++++++++++to 0.00115179
Heightened Def Con from 0.00115179 ++++++++++++++++++++to 0.0011518
Heightened Def Con from 0.0011518 ++++++++++++++++++++to 0.0011518
Heightened Def Con from 0.0011518 +++++++++++++++++++++to 0.00115181
Heightened Def Con from 0.00115181 +++++++++++++++++++to 0.00115181
Heightened Def Con from 0.00115181 ++++++++++++++++++++to 0.00115182
Heightened Def Con from 0.00115182 ++++++++++++++++++++to 0.00115182
Heightened Def Con from 0.00115182 ++++++++++++++++++++to 0.00115182
Heightened Def Con from 0.00115182 ++++++++++++++++++++to 0.00115182
Heightened Def Con from 0.00115182 ++++++++++++++++++++to 0.00115183
Heightened Def Con from 0.00115183 ++++++++++++++++++++to 0.00115183
Heightened Def Con from 0.00115183 ++++++++++++++++++++to 0.00115183
Heightened Def Con from 0.00115183 ++++++++++++++++++++to 0.00115183
Heightened Def Con from 0.00115183 +++++++++++++++++++++to 0.00115184
Heightened Def Con from 0.00115184 ++++++++++++++++++++to 0.00115184
Heightened Def Con from 0.00115184 ++++++++++++++++++++++++++to 0.00115184
Heightened Def Con from 0.00115184 +++++++++++++++++++++to 0.00115185
Heightened Def Con from 0.00115185 +++++++++++++++++++++to 0.00115185
Heightened Def Con from 0.00115185 ++++++++++++++++++++to 0.00115185
Heightened Def Con from 0.00115185 ++++++++++++++++++to 0.00115186
Heightened Def Con from 0.00115186 +++++++++++++++++++to 0.00115186
Heightened Def Con from 0.00115186 +++++++++++++++++++to 0.00115186
Heightened Def Con from 0.00115186 ++++++++++++++++++++to 0.00115186
Heightened Def Con from 0.00115186 ++++++++++++++++++++to 0.00115186
Heightened Def Con from 0.00115186 ++++++++++++++++++++to 0.00115187
Heightened Def Con from 0.00115187 ++++++++++++++++++++to 0.00115187
Heightened Def Con from 0.00115187 +++++++++++++++++++++to 0.00115188
Heightened Def Con from 0.00115188 +++++++++++++++++++++to 0.00115188
Heightened Def Con from 0.00115188 ++++++++++++++++++++to 0.00115189
Heightened Def Con from 0.00115189 ++++++++++++++++++++to 0.00115189
Heightened Def Con from 0.00115189 +++++++++++++++++++++to 0.00115189
Heightened Def Con from 0.00115189 +++++++++++++++++++++to 0.0011519
Heightened Def Con from 0.0011519 ++++++++++++++++++++to 0.0011519
Heightened Def Con from 0.0011519 ++++++++++++++++++to 0.0011519
Heightened Def Con from 0.0011519 ++++++++++++++++++++to 0.00115191
Heightened Def Con from 0.00115191 +++++++++++++++++++++to 0.00115192
Heightened Def Con from 0.00115192 +++++++++++++++++++++to 0.00115192
Heightened Def Con from 0.00115192 +++++++++++++++++++to 0.00115192
Heightened Def Con from 0.00115192 +++++++++++++++++++++to 0.00115193
Heightened Def Con from 0.00115193 +++++++++++++++++++++to 0.00115193
Heightened Def Con from 0.00115193 +++++++++++++++++++++to 0.00115194
Heightened Def Con from 0.00115194 ++++++++++++++++++++to 0.00115194
Heightened Def Con from 0.00115194 ++++++++++++++++++to 0.00115194
Heightened Def Con from 0.00115194 ++++++++++++++++++++to 0.00115195
Heightened Def Con from 0.00115195 +++++++++++++++++++++to 0.00115195
Heightened Def Con from 0.00115195 +++++++++++++++++++++to 0.00115196
Heightened Def Con from 0.00115196 +++++++++++++++++++++to 0.00115197
Heightened Def Con from 0.00115197 ++++++++++++++++to 0.00115197
Heightened Def Con from 0.00115197 ++++++++++++++++++++++to 0.00115197
Heightened Def Con from 0.00115197 ++++++++++++++++++++++to 0.00115197
Heightened Def Con from 0.00115197 ++++++++++++++++++++to 0.00115198
Heightened Def Con from 0.00115198 ++++++++++++++++++to 0.00115198
Heightened Def Con from 0.00115198 ++++++++++++++++++to 0.00115199
Heightened Def Con from 0.00115199 ++++++++++++++++++++to 0.00115199
Heightened Def Con from 0.00115199 ++++++++++++++++++++to 0.001152
Heightened Def Con from 0.001152 ++++++++++++++++++++to 0.001152
Heightened Def Con from 0.001152 +++++++++++++++++++to 0.001152
Heightened Def Con from 0.001152 +++++++++++++++++++++to 0.00115201
Heightened Def Con from 0.00115201 ++++++++++++++++++++to 0.00115201
Heightened Def Con from 0.00115201 ++++++++++++++++++++to 0.00115202
Heightened Def Con from 0.00115202 ++++++++++++++++++to 0.00115202
Heightened Def Con from 0.00115202 +++++++++++++++++to 0.00115202
Heightened Def Con from 0.00115202 ++++++++++++++++++++++to 0.00115202
Heightened Def Con from 0.00115202 +++++++++++++++++++++to 0.00115203
Heightened Def Con from 0.00115203 +++++++++++++++++++++to 0.00115204
Heightened Def Con from 0.00115204 ++++++++++++++++++++to 0.00115204
Heightened Def Con from 0.00115204 +++++++++++++++++to 0.00115205
Heightened Def Con from 0.00115205 ++++++++++++++++++++to 0.00115205
Heightened Def Con from 0.00115205 ++++++++++++++++++to 0.00115205
Heightened Def Con from 0.00115205 ++++++++++++++++++++to 0.00115206
Heightened Def Con from 0.00115206 +++++++++++++++++++++to 0.00115206
Heightened Def Con from 0.00115206 ++++++++++++++++++to 0.00115207
Heightened Def Con from 0.00115207 ++++++++++++++++++to 0.00115207
Heightened Def Con from 0.00115207 ++++++++++++++++++++to 0.00115208
Heightened Def Con from 0.00115208 ++++++++++++++++++++to 0.00115208
Heightened Def Con from 0.00115208 ++++++++++++++++++++to 0.00115209
Heightened Def Con from 0.00115209 ++++++++++++++++++++to 0.00115209
Heightened Def Con from 0.00115209 ++++++++++++++++++++to 0.0011521
Heightened Def Con from 0.0011521 ++++++++++++++++++to 0.0011521
Heightened Def Con from 0.0011521 +++++++++++++++++++++to 0.00115211
Heightened Def Con from 0.00115211 +++++++++++++++++++++to 0.00115211
Heightened Def Con from 0.00115211 +++++++++++++++++++++to 0.00115211
Heightened Def Con from 0.00115211 +++++++++++++++++++++to 0.00115212
Heightened Def Con from 0.00115212 +++++++++++++++++++++to 0.00115212
Heightened Def Con from 0.00115212 ++++++++++++++++to 0.00115212
Heightened Def Con from 0.00115212 ++++++++++++++++to 0.00115212
Heightened Def Con from 0.00115212 ++++++++++++++++++++++++++to 0.00115213
Heightened Def Con from 0.00115213 +++++++++++++++++++++to 0.00115213
Heightened Def Con from 0.00115213 ++++++++++++++++++++to 0.00115213
Heightened Def Con from 0.00115213 +++++++++++++++++++++to 0.00115214
Heightened Def Con from 0.00115214 +++++++++++++++++++++to 0.00115214
Heightened Def Con from 0.00115214 ++++++++++++++++++++to 0.00115215
Heightened Def Con from 0.00115215 +++++++++++++++++++++to 0.00115216
Heightened Def Con from 0.00115216 +++++++++++++++++to 0.00115216
Heightened Def Con from 0.00115216 ++++++++++++++++++++to 0.00115216
Heightened Def Con from 0.00115216 +++++++++++++++++++to 0.00115217
Heightened Def Con from 0.00115217 ++++++++++++++++++to 0.00115217
Heightened Def Con from 0.00115217 ++++++++++++++++++to 0.00115218
Heightened Def Con from 0.00115218 ++++++++++++++++++++to 0.00115218
Heightened Def Con from 0.00115218 +++++++++++++++++++++to 0.00115219
Heightened Def Con from 0.00115219 ++++++++++++++++++++to 0.00115219
Heightened Def Con from 0.00115219 ++++++++++++++++++++to 0.00115219
Heightened Def Con from 0.00115219 ++++++++++++++++++++to 0.00115219
Heightened Def Con from 0.00115219 +++++++++++++++++++to 0.0011522
Heightened Def Con from 0.0011522 ++++++++++++++++++to 0.0011522
Heightened Def Con from 0.0011522 ++++++++++++++++++to 0.00115221
Heightened Def Con from 0.00115221 ++++++++++++++++++++to 0.00115221
Heightened Def Con from 0.00115221 ++++++++++++++++++++to 0.00115222
Heightened Def Con from 0.00115222 +++++++++++++++++++to 0.00115222
Heightened Def Con from 0.00115222 ++++++++++++++++++++to 0.00115222
Heightened Def Con from 0.00115222 ++++++++++++++++++++to 0.00115223
Heightened Def Con from 0.00115223 +++++++++++++++++++to 0.00115223
Heightened Def Con from 0.00115223 ++++++++++++++++++to 0.00115224
Heightened Def Con from 0.00115224 ++++++++++++++++++++to 0.00115224
Heightened Def Con from 0.00115224 ++++++++++++++++++++to 0.00115224
Heightened Def Con from 0.00115224 ++++++++++++++++++++to 0.00115225
Heightened Def Con from 0.00115225 ++++++++++++++++++++to 0.00115225
Heightened Def Con from 0.00115225 ++++++++++++++++++++to 0.00115225
Heightened Def Con from 0.00115225 ++++++++++++++++++++to 0.00115226
Heightened Def Con from 0.00115226 +++++++++++++++++++to 0.00115226
Heightened Def Con from 0.00115226 ++++++++++++++++++++to 0.00115227
Heightened Def Con from 0.00115227 ++++++++++++++++++++to 0.00115227
Heightened Def Con from 0.00115227 +++++++++++++++++++++to 0.00115227
Heightened Def Con from 0.00115227 ++++++++++++++++++++to 0.00115228
Heightened Def Con from 0.00115228 +++++++++++++++++++++to 0.00115228
Heightened Def Con from 0.00115228 +++++++++++++++++++++to 0.00115229
Heightened Def Con from 0.00115229 +++++++++++++++++++++to 0.00115229
Heightened Def Con from 0.00115229 +++++++++++++++++++++to 0.00115229
Heightened Def Con from 0.00115229 ++++++++++++++++++++++to 0.0011523
Heightened Def Con from 0.0011523 +++++++++++++++++++++to 0.0011523
Heightened Def Con from 0.0011523 +++++++++++++++++++++to 0.00115231
Heightened Def Con from 0.00115231 +++++++++++++++++++++to 0.00115231
Heightened Def Con from 0.00115231 +++++++++++++++++++++to 0.00115231
Heightened Def Con from 0.00115231 +++++++++++++++++++++to 0.00115232
Heightened Def Con from 0.00115232 ++++++++++++++++++++to 0.00115232
Heightened Def Con from 0.00115232 +++++++++++++++++++++to 0.00115233
Heightened Def Con from 0.00115233 +++++++++++++++++++++to 0.00115233
Heightened Def Con from 0.00115233 ++++++++++++++++++++to 0.00115233
Heightened Def Con from 0.00115233 +++++++++++++++++++to 0.00115234
Heightened Def Con from 0.00115234 +++++++++++++++++++++to 0.00115234
Heightened Def Con from 0.00115234 +++++++++++++++++++++to 0.00115235
Heightened Def Con from 0.00115235 +++++++++++++++++++++to 0.00115235
Heightened Def Con from 0.00115235 +++++++++++++++++++++to 0.00115236
Heightened Def Con from 0.00115236 ++++++++++++++++++++to 0.00115236
Heightened Def Con from 0.00115236 ++++++++++++++++++++to 0.00115237
Heightened Def Con from 0.00115237 ++++++++++++++++++++to 0.00115237
Heightened Def Con from 0.00115237 +++++++++++++++++++++to 0.00115237
Heightened Def Con from 0.00115237 ++++++++++++++++++++to 0.00115238
Heightened Def Con from 0.00115238 +++++++++++++++++++to 0.00115238
Heightened Def Con from 0.00115238 +++++++++++++++++++to 0.00115238
Heightened Def Con from 0.00115238 ++++++++++++++++++++to 0.00115239
[...]
Heightened Def Con from 0.00116033 ++++++++++++++++++++to 0.00116033
Heightened Def Con from 0.00116033 +++++++++++++++++++to 0.00116033
Heightened Def Con from 0.00116033 +++++++++++++++++++to 0.00116034
Heightened Def Con from 0.00116034 ++++++++++++++++++to 0.00116034
Heightened Def Con from 0.00116034 +++++++++++++++++++to 0.00116035
Heightened Def Con from 0.00116035 +++++++++++++++++to 0.00116035
Heightened Def Con from 0.00116035 +++++++++++++++++++to 0.00116036
Heightened Def Con from 0.00116036 ++++++++++++++++++to 0.00116036
Heightened Def Con from 0.00116036 ++++++++++++++++++to 0.00116037
Heightened Def Con from 0.00116037 +++++++++++++++++++to 0.00116038
Heightened Def Con from 0.00116038 +++++++++++++++++to 0.00116038
Heightened Def Con from 0.00116038 +++++++++++++++++++to 0.00116038
Heightened Def Con from 0.00116038 +++++++++++++++++++++to 0.00116039
Heightened Def Con from 0.00116039 +++++++++++++++++++to 0.00116039
Heightened Def Con from 0.00116039 ++++++++++++++++++to 0.0011604
Heightened Def Con from 0.0011604 ++++++++++++++++to 0.0011604
Heightened Def Con from 0.0011604 ++++++++++++++++to 0.0011604
Heightened Def Con from 0.0011604 +++++++++++++++++to 0.00116041
Heightened Def Con from 0.00116041 +++++++++++++++++to 0.00116042
Heightened Def Con from 0.00116042 +++++++++++++++++++to 0.00116042
Heightened Def Con from 0.00116042 +++++++++++++++++++to 0.00116042
Heightened Def Con from 0.00116042 ++++++++++++++++++++to 0.00116043
Heightened Def Con from 0.00116043 ++++++++++++++++++++to 0.00116043
Heightened Def Con from 0.00116043 +++++++++++++++++++++to 0.00116044
Heightened Def Con from 0.00116044 +++++++++++++++++++to 0.00116044
Heightened Def Con from 0.00116044 +++++++++++++++++++++to 0.00116045
Heightened Def Con from 0.00116045 ++++++++++++++++++++to 0.00116045
Heightened Def Con from 0.00116045 +++++++++++++++++++to 0.00116046
Heightened Def Con from 0.00116046 +++++++++++++++++++to 0.00116046
Heightened Def Con from 0.00116046 ++++++++++++++++++to 0.00116047
Heightened Def Con from 0.00116047 +++++++++++++++++to 0.00116047
Heightened Def Con from 0.00116047 +++++++++++++++++++to 0.00116047
Heightened Def Con from 0.00116047 ++++++++++++++++++++to 0.00116048
Heightened Def Con from 0.00116048 ++++++++++++++++++to 0.00116048
Heightened Def Con from 0.00116048 ++++++++++++++++++to 0.00116049
Heightened Def Con from 0.00116049 +++++++++++++++++to 0.00116049
Heightened Def Con from 0.00116049 +++++++++++++++++++to 0.0011605
Heightened Def Con from 0.0011605 +++++++++++++++++++to 0.0011605
Heightened Def Con from 0.0011605 ++++++++++++++++++to 0.0011605
Heightened Def Con from 0.0011605 +++++++++++++++++++to 0.00116051
Heightened Def Con from 0.00116051 ++++++++++++++++++++to 0.00116051
Heightened Def Con from 0.00116051 +++++++++++++++++++++to 0.00116051
Heightened Def Con from 0.00116051 ++++++++++++++++++++to 0.00116052
Heightened Def Con from 0.00116052 ++++++++++++++++++++to 0.00116052
Heightened Def Con from 0.00116052 +++++++++++++++++++++to 0.00116053
Heightened Def Con from 0.00116053 +++++++++++++++to 0.00116053
Heightened Def Con from 0.00116053 ++++++++++++++++++++++to 0.00116053
Heightened Def Con from 0.00116053 ++++++++++++++++++to 0.00116054
Heightened Def Con from 0.00116054 ++++++++++++++++++++to 0.00116054
Heightened Def Con from 0.00116054 +++++++++++++++++to 0.00116054
Heightened Def Con from 0.00116054 +++++++++++++++++++++to 0.00116055
Heightened Def Con from 0.00116055 ++++++++++++++++++++to 0.00116055
Heightened Def Con from 0.00116055 +++++++++++++++++to 0.00116055
Heightened Def Con from 0.00116055 ++++++++++++++++++to 0.00116056
Heightened Def Con from 0.00116056 ++++++++++++++++to 0.00116056
Heightened Def Con from 0.00116056 +++++++++++++++++++to 0.00116057
Heightened Def Con from 0.00116057 +++++++++++++++++++++to 0.00116057
Heightened Def Con from 0.00116057 ++++++++++++++++++++++to 0.00116058
Heightened Def Con from 0.00116058 +++++++++++++++++++++to 0.00116058
Heightened Def Con from 0.00116058 +++++++++++++++++++++to 0.00116059
Heightened Def Con from 0.00116059 ++++++++++++++++++to 0.00116059
Heightened Def Con from 0.00116059 ++++++++++++++++++to 0.00116059
Heightened Def Con from 0.00116059 +++++++++++++++++to 0.0011606
Heightened Def Con from 0.0011606 ++++++++++++++++to 0.0011606
Heightened Def Con from 0.0011606 ++++++++++++++++++++to 0.00116061
Heightened Def Con from 0.00116061 +++++++++++++++++++++to 0.00116061
Heightened Def Con from 0.00116061 ++++++++++++++++++++to 0.00116062
Heightened Def Con from 0.00116062 ++++++++++++++++++++to 0.00116062
Heightened Def Con from 0.00116062 +++++++++++++++++++++to 0.00116063
Heightened Def Con from 0.00116063 ++++++++++++++++++++to 0.00116063
Heightened Def Con from 0.00116063 ++++++++++++++++++++to 0.00116064
Heightened Def Con from 0.00116064 ++++++++++++++++++++to 0.00116064
Heightened Def Con from 0.00116064 ++++++++++++++++++++to 0.00116064
Heightened Def Con from 0.00116064 +++++++++++++++++++++to 0.00116065
Heightened Def Con from 0.00116065 ++++++++++++++++++++to 0.00116065
Heightened Def Con from 0.00116065 ++++++++++++++++++++to 0.00116066
Heightened Def Con from 0.00116066 +++++++++++++++++++to 0.00116066
Heightened Def Con from 0.00116066 +++++++++++++++++++++to 0.00116066
Heightened Def Con from 0.00116066 ++++++++++++++++++++to 0.00116066
Heightened Def Con from 0.00116066 ++++++++++++++++++++to 0.00116067
Heightened Def Con from 0.00116067 ++++++++++++++++++to 0.00116067
Heightened Def Con from 0.00116067 +++++++++++++++++++++to 0.00116067
Heightened Def Con from 0.00116067 +++++++++++++++++++++to 0.00116068
Heightened Def Con from 0.00116068 +++++++++++++++++++++to 0.00116068
Heightened Def Con from 0.00116068 +++++++++++++++++to 0.00116069
Heightened Def Con from 0.00116069 +++++++++++++++++++++to 0.00116069
Heightened Def Con from 0.00116069 ++++++++++++++++++++to 0.00116069
Heightened Def Con from 0.00116069 ++++++++++++++++++++to 0.0011607
Heightened Def Con from 0.0011607 ++++++++++++++++++++to 0.0011607
Heightened Def Con from 0.0011607 +++++++++++++++++++++to 0.0011607
Heightened Def Con from 0.0011607 +++++++++++++++++++++to 0.00116071
Heightened Def Con from 0.00116071 ++++++++++++++++++++to 0.00116071
Heightened Def Con from 0.00116071 ++++++++++++++++++++to 0.00116071
Heightened Def Con from 0.00116071 ++++++++++++++++++++to 0.00116072
Heightened Def Con from 0.00116072 +++++++++++++++++++to 0.00116072
Heightened Def Con from 0.00116072 ++++++++++++++++++++to 0.00116072
Heightened Def Con from 0.00116072 +++++++++++++++++++++to 0.00116073
Heightened Def Con from 0.00116073 ++++++++++++++++++++to 0.00116074
Heightened Def Con from 0.00116074 +++++++++++++++++++to 0.00116074
Heightened Def Con from 0.00116074 ++++++++++++++++++to 0.00116075
Heightened Def Con from 0.00116075 ++++++++++++++++++++to 0.00116075
Heightened Def Con from 0.00116075 ++++++++++++++++++++to 0.00116076
Heightened Def Con from 0.00116076 ++++++++++++++++++++to 0.00116076
Heightened Def Con from 0.00116076 ++++++++++++++++++++to 0.00116076
Heightened Def Con from 0.00116076 +++++++++++++++++++to 0.00116076
Heightened Def Con from 0.00116076 ++++++++++++++++to 0.00116077
Heightened Def Con from 0.00116077 ++++++++++++++++to 0.00116077
Heightened Def Con from 0.00116077 ++++++++++++++++++to 0.00116078
Heightened Def Con from 0.00116078 ++++++++++++++++to 0.00116078
Heightened Def Con from 0.00116078 ++++++++++++++++to 0.00116078
Heightened Def Con from 0.00116078 +++++++++++++++++to 0.00116078
Heightened Def Con from 0.00116078 +++++++++++++++++to 0.00116079
Heightened Def Con from 0.00116079 +++++++++++++++to 0.00116079
Heightened Def Con from 0.00116079 +++++++++++++++++to 0.00116079
Heightened Def Con from 0.00116079 +++++++++++++++++to 0.00116079
Heightened Def Con from 0.00116079 +++++++++++++++++to 0.0011608
Heightened Def Con from 0.0011608 ++++++++++++++++++++to 0.0011608
Heightened Def Con from 0.0011608 +++++++++++++++++++to 0.00116081
Heightened Def Con from 0.00116081 +++++++++++++++++++to 0.00116081
Heightened Def Con from 0.00116081 ++++++++++++++++++to 0.00116082
Heightened Def Con from 0.00116082 ++++++++++++++++to 0.00116082
Heightened Def Con from 0.00116082 +++++++++++++++++to 0.00116082
Heightened Def Con from 0.00116082 +++++++++++++++++to 0.00116082
Heightened Def Con from 0.00116082 ++++++++++++++++to 0.00116083
Heightened Def Con from 0.00116083 ++++++++++++++++to 0.00116083
Heightened Def Con from 0.00116083 +++++++++++++++++to 0.00116083
Heightened Def Con from 0.00116083 ++++++++++++++++++++to 0.00116084
Heightened Def Con from 0.00116084 ++++++++++++++++++++to 0.00116084
Heightened Def Con from 0.00116084 ++++++++++++++++++++to 0.00116084
Heightened Def Con from 0.00116084 ++++++++++++++++++++to 0.00116085
Heightened Def Con from 0.00116085 ++++++++++++++++++++to 0.00116085
Heightened Def Con from 0.00116085 ++++++++++++++++++++to 0.00116085
Heightened Def Con from 0.00116085 ++++++++++++++++++++to 0.00116085
Heightened Def Con from 0.00116085 ++++++++++++++++++++to 0.00116086
Heightened Def Con from 0.00116086 +++++++++++++++++++to 0.00116086
Heightened Def Con from 0.00116086 +++++++++++++++++++to 0.00116087
Heightened Def Con from 0.00116087 ++++++++++++++++++++to 0.00116087
Heightened Def Con from 0.00116087 ++++++++++++++++++++to 0.00116088
Heightened Def Con from 0.00116088 ++++++++++++++++++++to 0.00116088
Heightened Def Con from 0.00116088 ++++++++++++++++++++to 0.00116088
Heightened Def Con from 0.00116088 ++++++++++++++++++++to 0.00116089
Heightened Def Con from 0.00116089 ++++++++++++++++++++to 0.00116089
Heightened Def Con from 0.00116089 ++++++++++++++++++++to 0.00116089
Heightened Def Con from 0.00116089 +++++++++++++++++++to 0.00116089
Heightened Def Con from 0.00116089 ++++++++++++++++++to 0.0011609
Heightened Def Con from 0.0011609 ++++++++++++++++++to 0.00116091
Heightened Def Con from 0.00116091 +++++++++++++++++to 0.00116091
Heightened Def Con from 0.00116091 ++++++++++++++++++to 0.00116092
Heightened Def Con from 0.00116092 ++++++++++++++++to 0.00116092
Heightened Def Con from 0.00116092 ++++++++++++++++to 0.00116092
Heightened Def Con from 0.00116092 ++++++++++++++++++++to 0.00116093
Heightened Def Con from 0.00116093 +++++++++++++++++++++to 0.00116093
Heightened Def Con from 0.00116093 ++++++++++++++++++to 0.00116094
Heightened Def Con from 0.00116094 +++++++++++++++++to 0.00116094
Heightened Def Con from 0.00116094 ++++++++++++++++++++to 0.00116095
Heightened Def Con from 0.00116095 +++++++++++++++++++to 0.00116096
Heightened Def Con from 0.00116096 +++++++++++++++++to 0.00116096
Heightened Def Con from 0.00116096 +++++++++++++++++++to 0.00116096
Heightened Def Con from 0.00116096 +++++++++++++++++++to 0.00116097
Heightened Def Con from 0.00116097 ++++++++++++++++++++to 0.00116097
Heightened Def Con from 0.00116097 ++++++++++++++++++++to 0.00116098
Heightened Def Con from 0.00116098 ++++++++++++++++++++to 0.00116098
Heightened Def Con from 0.00116098 ++++++++++++++++++++to 0.00116098
Heightened Def Con from 0.00116098 ++++++++++++++++++++to 0.00116099
Heightened Def Con from 0.00116099 ++++++++++++++++++++to 0.00116099
Heightened Def Con from 0.00116099 ++++++++++++++++++++to 0.00116099
Heightened Def Con from 0.00116099 ++++++++++++++++++++to 0.00116099
Heightened Def Con from 0.00116099 +++++++++++++++++++to 0.001161
Heightened Def Con from 0.001161 +++++++++++++++++++to 0.001161
Heightened Def Con from 0.001161 +++++++++++++++++++++to 0.00116101
Heightened Def Con from 0.00116101 +++++++++++++++++++++to 0.00116101
Heightened Def Con from 0.00116101 ++++++++++++++++++++++to 0.00116102
Heightened Def Con from 0.00116102 +++++++++++++++++++to 0.00116102
Heightened Def Con from 0.00116102 ++++++++++++++++to 0.00116103
Heightened Def Con from 0.00116103 +++++++++++++++++++++to 0.00116103
Heightened Def Con from 0.00116103 ++++++++++++++++++to 0.00116103
Heightened Def Con from 0.00116103 +++++++++++++++++++++to 0.00116104
Heightened Def Con from 0.00116104 +++++++++++++++++++++to 0.00116104
Heightened Def Con from 0.00116104 ++++++++++++++++to 0.00116104
Heightened Def Con from 0.00116104 ++++++++++++++++++++to 0.00116104
Heightened Def Con from 0.00116104 +++++++++++++++++++to 0.00116105
Heightened Def Con from 0.00116105 ++++++++++++++++++++to 0.00116105
Heightened Def Con from 0.00116105 ++++++++++++++++++++to 0.00116106
Heightened Def Con from 0.00116106 +++++++++++++++++++to 0.00116106
Heightened Def Con from 0.00116106 ++++++++++++++++++++to 0.00116107
Heightened Def Con from 0.00116107 ++++++++++++++++++++to 0.00116107
Heightened Def Con from 0.00116107 ++++++++++++++++++++to 0.00116107
Heightened Def Con from 0.00116107 ++++++++++++++++++++to 0.00116107
Heightened Def Con from 0.00116107 +++++++++++++++++++to 0.00116108
Heightened Def Con from 0.00116108 ++++++++++++++++++to 0.00116108
Heightened Def Con from 0.00116108 ++++++++++++++++++++to 0.00116109
Heightened Def Con from 0.00116109 ++++++++++++++++++++to 0.00116109
Heightened Def Con from 0.00116109 +++++++++++++++++++to 0.0011611
Heightened Def Con from 0.0011611 +++++++++++++++++++to 0.0011611
Heightened Def Con from 0.0011611 ++++++++++++++++++++to 0.00116111
Heightened Def Con from 0.00116111 ++++++++++++++++++++to 0.00116111
Heightened Def Con from 0.00116111 +++++++++++++++++++to 0.00116111
Heightened Def Con from 0.00116111 ++++++++++++++++++++to 0.00116112
Heightened Def Con from 0.00116112 +++++++++++++++++++to 0.00116112
Heightened Def Con from 0.00116112 ++++++++++++++++++++to 0.00116112
Heightened Def Con from 0.00116112 ++++++++++++++++++++to 0.00116113
Heightened Def Con from 0.00116113 ++++++++++++++++++++to 0.00116113
Heightened Def Con from 0.00116113 ++++++++++++++++++++++to 0.00116114
Heightened Def Con from 0.00116114 +++++++++++++++++++++to 0.00116114
Heightened Def Con from 0.00116114 +++++++++++++++++++to 0.00116114
Heightened Def Con from 0.00116114 +++++++++++++++++++to 0.00116115
Heightened Def Con from 0.00116115 ++++++++++++++++++++to 0.00116116
Heightened Def Con from 0.00116116 +++++++++++++++++++++to 0.00116116
Heightened Def Con from 0.00116116 +++++++++++++++++++++to 0.00116117
Heightened Def Con from 0.00116117 ++++++++++++++++++++to 0.00116117
Heightened Def Con from 0.00116117 ++++++++++++++++++++to 0.00116117
Heightened Def Con from 0.00116117 ++++++++++++++++++++to 0.00116118
Heightened Def Con from 0.00116118 ++++++++++++++++++++to 0.00116118
Heightened Def Con from 0.00116118 ++++++++++++++++++++to 0.00116118
Heightened Def Con from 0.00116118 +++++++++++++++++++to 0.00116118
Heightened Def Con from 0.00116118 +++++++++++++++++to 0.00116119
Heightened Def Con from 0.00116119 ++++++++++++++++to 0.00116119
Heightened Def Con from 0.00116119 ++++++++++++++++++++to 0.0011612
Heightened Def Con from 0.0011612 ++++++++++++++++++++to 0.0011612
Heightened Def Con from 0.0011612 ++++++++++++++++++++to 0.00116121
Heightened Def Con from 0.00116121 ++++++++++++++++++++to 0.00116121
Heightened Def Con from 0.00116121 ++++++++++++++++++++to 0.00116121
Heightened Def Con from 0.00116121 ++++++++++++++++++++to 0.00116122
Heightened Def Con from 0.00116122 +++++++++++++++++++to 0.00116122
Heightened Def Con from 0.00116122 +++++++++++++++++++to 0.00116122
Heightened Def Con from 0.00116122 ++++++++++++++++to 0.00116123
Heightened Def Con from 0.00116123 +++++++++++++++++++to 0.00116123
Heightened Def Con from 0.00116123 +++++++++++++++++to 0.00116124
Heightened Def Con from 0.00116124 +++++++++++++++++to 0.00116124
Heightened Def Con from 0.00116124 +++++++++++++++++to 0.00116124
Heightened Def Con from 0.00116124 ++++++++++++++++to 0.00116125
Heightened Def Con from 0.00116125 +++++++++++++++++++to 0.00116125
Heightened Def Con from 0.00116125 +++++++++++++++++++to 0.00116125
Heightened Def Con from 0.00116125 +++++++++++++++++++++to 0.00116126
Heightened Def Con from 0.00116126 +++++++++++++++++++++to 0.00116126
Heightened Def Con from 0.00116126 +++++++++++++++++++to 0.00116127
Heightened Def Con from 0.00116127 ++++++++++++++++++++to 0.00116128
Heightened Def Con from 0.00116128 ++++++++++++++++++++to 0.00116128
Heightened Def Con from 0.00116128 +++++++++++++++++++++to 0.00116128
Heightened Def Con from 0.00116128 +++++++++++++++++++++to 0.00116129
Heightened Def Con from 0.00116129 +++++++++++++++++++++to 0.00116129
Heightened Def Con from 0.00116129 ++++++++++++++++++++to 0.0011613
Heightened Def Con from 0.0011613 +++++++++++++++++++++to 0.0011613
Heightened Def Con from 0.0011613 ++++++++++++++++++++to 0.00116131
Heightened Def Con from 0.00116131 ++++++++++++++++++++to 0.00116131
Heightened Def Con from 0.00116131 +++++++++++++++++++to 0.00116131
Heightened Def Con from 0.00116131 ++++++++++++++++++++to 0.00116132
Heightened Def Con from 0.00116132 +++++++++++++++++++++to 0.00116132
Heightened Def Con from 0.00116132 +++++++++++++++++++++to 0.00116133
Heightened Def Con from 0.00116133 +++++++++++++++++++++to 0.00116133
Heightened Def Con from 0.00116133 ++++++++++++++++++++to 0.00116133
Heightened Def Con from 0.00116133 +++++++++++++++++++to 0.00116134
Heightened Def Con from 0.00116134 ++++++++++++++++++++to 0.00116134
Heightened Def Con from 0.00116134 +++++++++++++++++++++to 0.00116134
Heightened Def Con from 0.00116134 ++++++++++++++++++++to 0.00116135
Heightened Def Con from 0.00116135 ++++++++++++++++++++to 0.00116135
Heightened Def Con from 0.00116135 ++++++++++++++++++++to 0.00116135
Heightened Def Con from 0.00116135 ++++++++++++++++++++to 0.00116136
Heightened Def Con from 0.00116136 ++++++++++++++++++++to 0.00116136
Heightened Def Con from 0.00116136 ++++++++++++++++++++to 0.00116136
Heightened Def Con from 0.00116136 +++++++++++++++++++to 0.00116136
Heightened Def Con from 0.00116136 +++++++++++++++++to 0.00116136
Heightened Def Con from 0.00116136 +++++++++++++++++to 0.00116137
Heightened Def Con from 0.00116137 +++++++++++++++++to 0.00116137
Heightened Def Con from 0.00116137 ++++++++++++++++++to 0.00116138
Heightened Def Con from 0.00116138 ++++++++++++++++to 0.00116139
Heightened Def Con from 0.00116139 ++++++++++++++++to 0.00116139
Heightened Def Con from 0.00116139 ++++++++++++++++to 0.00116139
Heightened Def Con from 0.00116139 +++++++++++++++++to 0.00116139
Heightened Def Con from 0.00116139 +++++++++++++++++++to 0.0011614
Heightened Def Con from 0.0011614 ++++++++++++++++++to 0.00116141
Heightened Def Con from 0.00116141 ++++++++++++++++++++to 0.00116141
Heightened Def Con from 0.00116141 ++++++++++++++++++++to 0.00116141
Heightened Def Con from 0.00116141 ++++++++++++++++++++to 0.00116142
Heightened Def Con from 0.00116142 ++++++++++++++++++++to 0.00116142
Heightened Def Con from 0.00116142 +++++++++++++++++++to 0.00116142
Heightened Def Con from 0.00116142 ++++++++++++++++++to 0.00116143
Heightened Def Con from 0.00116143 ++++++++++++++++to 0.00116143
Heightened Def Con from 0.00116143 ++++++++++++++++++to 0.00116144
Heightened Def Con from 0.00116144 +++++++++++++++++to 0.00116144
Heightened Def Con from 0.00116144 +++++++++++++++++++to 0.00116145
Heightened Def Con from 0.00116145 ++++++++++++++++++to 0.00116145
Heightened Def Con from 0.00116145 ++++++++++++++++++to 0.00116145
Heightened Def Con from 0.00116145 +++++++++++++++to 0.00116145
Heightened Def Con from 0.00116145 +++++++++++++++++++++to 0.00116146
Heightened Def Con from 0.00116146 +++++++++++++++++++++to 0.00116146
Heightened Def Con from 0.00116146 +++++++++++++++++++++to 0.00116147
Heightened Def Con from 0.00116147 ++++++++++++++++++++to 0.00116147
Heightened Def Con from 0.00116147 ++++++++++++++++++++to 0.00116148
Heightened Def Con from 0.00116148 ++++++++++++++++++++to 0.00116148
Heightened Def Con from 0.00116148 ++++++++++++++++++++to 0.00116148
Heightened Def Con from 0.00116148 +++++++++++++++++++to 0.00116148
Heightened Def Con from 0.00116148 +++++++++++++++++++to 0.00116149
Heightened Def Con from 0.00116149 +to 0.00116149
