LTspice 24.1.10 for Windows
Circuit: D:\Projects\Lidl_Projects\DoDE_Labs\Block_Diagram\Draft1.net
Start Time: Sat Sep 20 19:10:09 2025
solver = Normal
Maximum thread count: 8
tnom = 27
temp = 27
method = trap
Direct Newton iteration for .op point succeeded.
Total elapsed time: 2.574 seconds.

Files loaded:
D:\Projects\Lidl_Projects\DoDE_Labs\Block_Diagram\Draft1.net
C:\Users\Nickolas\AppData\Local\LTspice\lib\cmp\standard.bjt
D:\Projects\Lidl_Projects\DoDE_Labs\Block_Diagram\nat_semi.lib
D:\Projects\Lidl_Projects\DoDE_Labs\Block_Diagram\tex_inst.lib

