LTspice 24.1.10 for Windows
Circuit: D:\Projects\BMS_Project\4.MISC\Problem_1\LTspice\Problem_1.net
Start Time: Mon Sep 29 09:33:55 2025
solver = Normal
Maximum thread count: 8
tnom = 27
temp = 27
method = trap
Direct Newton iteration failed to find .op point.  (Use ".option noopiter" to skip.)
Starting Gmin stepping
Increasing initial diagonal Gmin to 100
Gmin = 100
vernier = 0.5
vernier = 0.25
Gmin = 34.2672
vernier = 0.125
vernier = 0.0625
vernier = 0.03125
vernier = 0.015625
Gmin = 33.0995
vernier = 0.0078125
vernier = 0.00390625
vernier = 0.00195312
Gmin = 32.9705
vernier = 0.000976562
vernier = 0.000488281
Gmin = 0
Gmin stepping failed

Starting source stepping with srcstepmethod=0
Source Step = 3.0303%
Source Step = 33.3333%
Source Step = 63.6364%
Source Step = 93.9394%
Source stepping succeeded in finding the operating point.

Total elapsed time: 2.035 seconds.

Files loaded:
D:\Projects\BMS_Project\4.MISC\Problem_1\LTspice\Problem_1.net
C:\Users\Nickolas\AppData\Local\LTspice\lib\cmp\standard.bjt
D:\Projects\BMS_Project\4.MISC\Problem_1\LTspice\nat_semi.lib
D:\Projects\BMS_Project\4.MISC\Problem_1\LTspice\tex_inst.lib

