LTspice 24.1.10 for Windows
Circuit: D:\Projects\Lidl_Projects\DoDE_Labs\Block_Diagram\Component_1.net
Start Time: Sat Sep 20 19:39:02 2025
solver = Normal
Maximum thread count: 8
tnom = 27
temp = 27
method = trap
Early termination of direct N-R iteration.
Direct Newton iteration failed to find .op point.  (Use ".option noopiter" to skip.)
Starting Gmin stepping
Gmin = 10
vernier = 0.5
vernier = 0.25
vernier = 0.125
Gmin = 5.5165
vernier = 0.0625
vernier = 0.03125
vernier = 0.015625
vernier = 0.0078125
Gmin = 5.49501
vernier = 0.00390625
vernier = 0.00195312
vernier = 0.000976562
vernier = 0.000488281
Gmin = 5.50104
Gmin = 0
Gmin stepping failed

Starting source stepping with srcstepmethod=0
Source Step = 3.0303%
Source Step = 33.3333%
Source Step = 63.6364%
Source Step = 93.9394%
Source stepping succeeded in finding the operating point.

Total elapsed time: 13.827 seconds.

Files loaded:
D:\Projects\Lidl_Projects\DoDE_Labs\Block_Diagram\Component_1.net
D:\Projects\Lidl_Projects\DoDE_Labs\Block_Diagram\nat_semi.lib
D:\Projects\Lidl_Projects\DoDE_Labs\Block_Diagram\tex_inst.lib

